REMARK    Small molecule (ligand)
REMARK    Compound: Z1021695944_1_T2
REMARK    SMILES: CN(CCCNC(=S)NNC(=S)NC1=C(C)N(C)N(C1=O)C1=CC=CC=C1)C1=CC=CC=C1
REMARK    The ligand was originally not a salt, therefore no desalting was carried out.
REMARK    The tautomeric state was generated by cxcalc version 18.20.0 of ChemAxons JChem Suite.
REMARK    Protonation state was generated at pH 7.4 by cxcalc version 18.20.0 of ChemAxons JChem Suite.
REMARK    Generation of the 3D conformation was carried out by molconvert version 18.20.0 of ChemAxons JChem Suite.
REMARK    Generation of the the target format file (pdbqt) was carried out by Open Babel version 2.4.1.
REMARK    Created on Tue Nov 13 12:58:59 EST 2018
REMARK  15 active torsions:
REMARK  status: ('A' for Active; 'I' for Inactive)
REMARK    1  A    between atoms: _1  and  _2
REMARK    2  A    between atoms: _2  and  _3
REMARK    3  A    between atoms: _2  and  _28
REMARK    4  A    between atoms: _3  and  _4
REMARK    5  A    between atoms: _4  and  _5
REMARK    6  A    between atoms: _5  and  _6
REMARK    7  A    between atoms: _6  and  _7
REMARK    8  A    between atoms: _7  and  _9
REMARK    9  A    between atoms: _9  and  _10
REMARK   10  A    between atoms: _10  and  _11
REMARK   11  A    between atoms: _11  and  _13
REMARK   12  A    between atoms: _13  and  _14
REMARK   13  A    between atoms: _15  and  _16
REMARK   14  A    between atoms: _17  and  _18
REMARK   15  A    between atoms: _19  and  _22
REMARK                            x       y       z     vdW  Elec       q    Type
REMARK                         _______ _______ _______ _____ _____    ______ ____
ROOT
ATOM      1  N   LIG     1      -1.042  -3.917  -3.770  0.00  0.00    -0.246 N 
ATOM      2  H   LIG     1      -0.422  -3.542  -4.473  0.00  0.00    +0.172 HD
ENDROOT
BRANCH   1   3
ATOM      3  N   LIG     1      -0.779  -5.131  -3.351  0.00  0.00    -0.247 N 
ATOM      4  H   LIG     1       0.194  -5.329  -3.166  0.00  0.00    +0.172 HD
BRANCH   3   5
ATOM      5  C   LIG     1      -1.653  -6.115  -3.147  0.00  0.00    +0.147 C 
ATOM      6  S   LIG     1      -1.107  -7.389  -2.155  0.00  0.00    -0.017 S 
BRANCH   5   7
ATOM      7  N   LIG     1      -2.848  -6.113  -3.749  0.00  0.00    -0.325 N 
ATOM      8  H   LIG     1      -2.997  -5.291  -4.317  0.00  0.00    +0.148 HD
BRANCH   7   9
ATOM      9  C   LIG     1      -3.862  -7.119  -3.655  0.00  0.00    +0.105 C 
BRANCH   9  10
ATOM     10  C   LIG     1      -5.053  -6.778  -4.596  0.00  0.00    +0.037 C 
BRANCH  10  11
ATOM     11  C   LIG     1      -6.304  -7.695  -4.411  0.00  0.00    +0.106 C 
BRANCH  11  13
ATOM     12  C   LIG     1      -7.650  -6.333  -6.080  0.00  0.00    +0.129 C 
ATOM     13  N   LIG     1      -7.523  -7.490  -5.205  0.00  0.00    -0.333 N 
BRANCH  13  14
ATOM     14  C   LIG     1      -8.600  -8.406  -5.120  0.00  0.00    +0.029 A 
ATOM     15  C   LIG     1      -9.642  -8.445  -6.094  0.00  0.00    +0.023 A 
ATOM     16  C   LIG     1     -10.755  -9.296  -5.975  0.00  0.00    +0.002 A 
ATOM     17  C   LIG     1     -10.856 -10.171  -4.884  0.00  0.00    +0.000 A 
ATOM     18  C   LIG     1      -9.828 -10.204  -3.931  0.00  0.00    +0.002 A 
ATOM     19  C   LIG     1      -8.722  -9.341  -4.052  0.00  0.00    +0.023 A 
ENDBRANCH  13  14
ENDBRANCH  11  13
ENDBRANCH  10  11
ENDBRANCH   9  10
ENDBRANCH   7   9
ENDBRANCH   5   7
ENDBRANCH   3   5
ENDBRANCH   1   3
BRANCH   1  20
ATOM     20  C   LIG     1      -2.041  -3.148  -3.353  0.00  0.00    +0.151 C 
ATOM     21  S   LIG     1      -2.945  -2.335  -4.542  0.00  0.00    -0.017 S 
BRANCH  20  22
ATOM     22  N   LIG     1      -2.379  -2.939  -2.084  0.00  0.00    -0.290 N 
ATOM     23  H   LIG     1      -3.357  -3.084  -1.880  0.00  0.00    +0.154 HD
BRANCH  22  24
ATOM     24  C   LIG     1      -1.557  -2.558  -1.058  0.00  0.00    +0.121 A 
ATOM     25  C   LIG     1      -0.174  -2.410  -1.003  0.00  0.00    +0.293 A 
ATOM     26  O   LIG     1       0.636  -2.650  -1.929  0.00  0.00    -0.264 OA
ATOM     27  N   LIG     1       0.157  -1.929   0.215  0.00  0.00    -0.216 N 
ATOM     28  N   LIG     1      -0.928  -1.755   0.932  0.00  0.00    -0.282 N 
ATOM     29  C   LIG     1      -1.005  -1.189   2.256  0.00  0.00    +0.171 C 
ATOM     30  C   LIG     1      -2.003  -2.153   0.202  0.00  0.00    +0.059 A 
ATOM     31  C   LIG     1      -3.427  -2.116   0.616  0.00  0.00    +0.067 C 
BRANCH  27  32
ATOM     32  C   LIG     1       1.447  -1.657   0.581  0.00  0.00    +0.067 A 
ATOM     33  C   LIG     1       1.928  -0.328   0.576  0.00  0.00    +0.028 A 
ATOM     34  C   LIG     1       3.265  -0.055   0.924  0.00  0.00    +0.002 A 
ATOM     35  C   LIG     1       4.127  -1.107   1.286  0.00  0.00    +0.000 A 
ATOM     36  C   LIG     1       3.652  -2.431   1.302  0.00  0.00    +0.002 A 
ATOM     37  C   LIG     1       2.317  -2.706   0.950  0.00  0.00    +0.028 A 
ENDBRANCH  27  32
ENDBRANCH  22  24
ENDBRANCH  20  22
ENDBRANCH   1  20
TORSDOF 12
