REMARK    Small molecule (ligand)
REMARK    Compound: Z1021695944_1_T1
REMARK    SMILES: CN(CCCNC(=S)NNC(S)=NC1=C(C)N(C)N(C1=O)C1=CC=CC=C1)C1=CC=CC=C1
REMARK    The ligand was originally not a salt, therefore no desalting was carried out.
REMARK    The tautomeric state was generated by cxcalc version 18.20.0 of ChemAxons JChem Suite.
REMARK    Protonation state was generated at pH 7.4 by cxcalc version 18.20.0 of ChemAxons JChem Suite.
REMARK    Generation of the 3D conformation was carried out by molconvert version 18.20.0 of ChemAxons JChem Suite.
REMARK    Generation of the the target format file (pdbqt) was carried out by Open Babel version 2.4.1.
REMARK    Created on Tue Nov 13 12:58:58 EST 2018
REMARK  14 active torsions:
REMARK  status: ('A' for Active; 'I' for Inactive)
REMARK    1  A    between atoms: _1  and  _2
REMARK    2  A    between atoms: _2  and  _3
REMARK    3  A    between atoms: _2  and  _28
REMARK    4  A    between atoms: _3  and  _4
REMARK    5  A    between atoms: _4  and  _5
REMARK    6  A    between atoms: _5  and  _6
REMARK    7  A    between atoms: _6  and  _7
REMARK    8  A    between atoms: _7  and  _9
REMARK    9  A    between atoms: _9  and  _10
REMARK   10  A    between atoms: _11  and  _12
REMARK   11  A    between atoms: _13  and  _14
REMARK   12  A    between atoms: _15  and  _16
REMARK   13  A    between atoms: _17  and  _18
REMARK   14  A    between atoms: _19  and  _22
REMARK                            x       y       z     vdW  Elec       q    Type
REMARK                         _______ _______ _______ _____ _____    ______ ____
ROOT
ATOM      1  N   LIG     1      -3.583  -5.174   0.251  0.00  0.00    -0.244 N 
ATOM      2  H   LIG     1      -4.363  -5.658  -0.170  0.00  0.00    +0.172 HD
ATOM      3  C   LIG     1      -3.800  -4.087   0.975  0.00  0.00    +0.168 C 
ATOM      4  N   LIG     1      -3.092  -3.014   1.003  0.00  0.00    -0.218 NA
ENDROOT
BRANCH   4   5
ATOM      5  C   LIG     1      -2.038  -2.574   0.321  0.00  0.00    +0.153 A 
ATOM      6  C   LIG     1      -1.060  -1.777   0.896  0.00  0.00    +0.298 A 
ATOM      7  O   LIG     1      -1.040  -1.412   2.096  0.00  0.00    -0.264 OA
ATOM      8  N   LIG     1      -0.177  -1.421  -0.059  0.00  0.00    -0.215 N 
ATOM      9  N   LIG     1      -0.484  -2.028  -1.179  0.00  0.00    -0.282 N 
ATOM     10  C   LIG     1       0.303  -2.055  -2.387  0.00  0.00    +0.171 C 
ATOM     11  C   LIG     1      -1.674  -2.669  -1.028  0.00  0.00    +0.064 A 
ATOM     12  C   LIG     1      -2.432  -3.302  -2.130  0.00  0.00    +0.067 C 
BRANCH   8  13
ATOM     13  C   LIG     1       0.766  -0.449   0.124  0.00  0.00    +0.067 A 
ATOM     14  C   LIG     1       0.377   0.909   0.142  0.00  0.00    +0.028 A 
ATOM     15  C   LIG     1       1.331   1.921   0.357  0.00  0.00    +0.002 A 
ATOM     16  C   LIG     1       2.682   1.581   0.547  0.00  0.00    +0.000 A 
ATOM     17  C   LIG     1       3.081   0.232   0.516  0.00  0.00    +0.002 A 
ATOM     18  C   LIG     1       2.127  -0.781   0.303  0.00  0.00    +0.028 A 
ENDBRANCH   8  13
ENDBRANCH   4   5
BRANCH   1  19
ATOM     19  N   LIG     1      -2.389  -5.655   0.052  0.00  0.00    -0.246 N 
ATOM     20  H   LIG     1      -1.650  -5.306   0.646  0.00  0.00    +0.172 HD
BRANCH  19  21
ATOM     21  C   LIG     1      -2.094  -6.560  -0.868  0.00  0.00    +0.147 C 
ATOM     22  S   LIG     1      -0.693  -7.483  -0.562  0.00  0.00    -0.017 S 
BRANCH  21  23
ATOM     23  N   LIG     1      -2.833  -6.676  -1.979  0.00  0.00    -0.325 N 
ATOM     24  H   LIG     1      -3.661  -6.099  -1.960  0.00  0.00    +0.148 HD
BRANCH  23  25
ATOM     25  C   LIG     1      -2.553  -7.500  -3.112  0.00  0.00    +0.105 C 
BRANCH  25  26
ATOM     26  C   LIG     1      -3.300  -6.985  -4.373  0.00  0.00    +0.037 C 
BRANCH  26  27
ATOM     27  C   LIG     1      -3.114  -7.909  -5.616  0.00  0.00    +0.106 C 
BRANCH  27  29
ATOM     28  C   LIG     1      -4.591  -6.434  -7.059  0.00  0.00    +0.129 C 
ATOM     29  N   LIG     1      -3.732  -7.600  -6.909  0.00  0.00    -0.333 N 
BRANCH  29  30
ATOM     30  C   LIG     1      -3.497  -8.440  -8.029  0.00  0.00    +0.029 A 
ATOM     31  C   LIG     1      -3.892  -8.078  -9.353  0.00  0.00    +0.023 A 
ATOM     32  C   LIG     1      -3.698  -8.925 -10.461  0.00  0.00    +0.002 A 
ATOM     33  C   LIG     1      -3.083 -10.173 -10.294  0.00  0.00    +0.000 A 
ATOM     34  C   LIG     1      -2.650 -10.560  -9.019  0.00  0.00    +0.002 A 
ATOM     35  C   LIG     1      -2.852  -9.709  -7.916  0.00  0.00    +0.023 A 
ENDBRANCH  29  30
ENDBRANCH  27  29
ENDBRANCH  26  27
ENDBRANCH  25  26
ENDBRANCH  23  25
ENDBRANCH  21  23
ENDBRANCH  19  21
ENDBRANCH   1  19
BRANCH   3  36
ATOM     36  S   LIG     1      -5.163  -4.099   2.000  0.00  0.00    -0.107 S 
ATOM     37  H   LIG     1      -4.766  -4.096   3.259  0.00  0.00    +0.110 HD
ENDBRANCH   3  36
TORSDOF 11
