REMARK    Small molecule (ligand)
REMARK    Compound: Z96057842_1_T1
REMARK    SMILES: CN1N(C(=O)C(N=C(S)NNC(=S)NCCSC2=CC=CC=C2)=C1C)C1=CC=CC=C1
REMARK    The ligand was originally not a salt, therefore no desalting was carried out.
REMARK    The tautomeric state was generated by cxcalc version 18.20.0 of ChemAxons JChem Suite.
REMARK    Protonation state was generated at pH 7.4 by cxcalc version 18.20.0 of ChemAxons JChem Suite.
REMARK    Generation of the 3D conformation was carried out by molconvert version 18.20.0 of ChemAxons JChem Suite.
REMARK    Generation of the the target format file (pdbqt) was carried out by Open Babel version 2.4.1.
REMARK    Created on Tue Nov 13 12:59:00 EST 2018
REMARK  12 active torsions:
REMARK  status: ('A' for Active; 'I' for Inactive)
REMARK    1  A    between atoms: _1  and  _2
REMARK    2  A    between atoms: _3  and  _26
REMARK    3  A    between atoms: _6  and  _7
REMARK    4  A    between atoms: _8  and  _9
REMARK    5  A    between atoms: _10  and  _11
REMARK    6  A    between atoms: _11  and  _12
REMARK    7  A    between atoms: _12  and  _14
REMARK    8  A    between atoms: _14  and  _15
REMARK    9  A    between atoms: _15  and  _16
REMARK   10  A    between atoms: _16  and  _17
REMARK   11  A    between atoms: _17  and  _18
REMARK   12  A    between atoms: _24  and  _25
REMARK                            x       y       z     vdW  Elec       q    Type
REMARK                         _______ _______ _______ _____ _____    ______ ____
ROOT
ATOM      1  N   LIG     1      -2.586  -3.678  -1.179  0.00  0.00    -0.218 NA
ATOM      2  C   LIG     1      -3.249  -4.745  -0.920  0.00  0.00    +0.168 C 
ATOM      3  N   LIG     1      -3.702  -5.341  -2.010  0.00  0.00    -0.244 N 
ATOM      4  H   LIG     1      -3.835  -4.786  -2.843  0.00  0.00    +0.172 HD
ENDROOT
BRANCH   1   9
ATOM      5  C   LIG     1      -1.278  -0.682   2.402  0.00  0.00    +0.171 C 
ATOM      6  N   LIG     1      -1.275  -1.427   1.171  0.00  0.00    -0.282 N 
ATOM      7  C   LIG     1      -2.373  -2.044   0.664  0.00  0.00    +0.064 A 
ATOM      8  C   LIG     1      -3.760  -1.912   1.160  0.00  0.00    +0.067 C 
ATOM      9  C   LIG     1      -1.939  -2.841  -0.394  0.00  0.00    +0.153 A 
ATOM     10  C   LIG     1      -0.585  -2.601  -0.524  0.00  0.00    +0.298 A 
ATOM     11  O   LIG     1       0.151  -3.125  -1.395  0.00  0.00    -0.264 OA
ATOM     12  N   LIG     1      -0.234  -1.697   0.414  0.00  0.00    -0.215 N 
BRANCH  12  13
ATOM     13  C   LIG     1       0.997  -1.099   0.425  0.00  0.00    +0.067 A 
ATOM     14  C   LIG     1       1.110   0.299   0.256  0.00  0.00    +0.028 A 
ATOM     15  C   LIG     1       2.377   0.909   0.202  0.00  0.00    +0.002 A 
ATOM     16  C   LIG     1       3.541   0.126   0.315  0.00  0.00    +0.000 A 
ATOM     17  C   LIG     1       3.439  -1.265   0.495  0.00  0.00    +0.002 A 
ATOM     18  C   LIG     1       2.173  -1.874   0.560  0.00  0.00    +0.028 A 
ENDBRANCH  12  13
ENDBRANCH   1   9
BRANCH   3  19
ATOM     19  N   LIG     1      -3.994  -6.610  -2.087  0.00  0.00    -0.246 N 
ATOM     20  H   LIG     1      -3.943  -7.148  -1.234  0.00  0.00    +0.172 HD
BRANCH  19  21
ATOM     21  C   LIG     1      -4.349  -7.217  -3.212  0.00  0.00    +0.147 C 
ATOM     22  S   LIG     1      -4.864  -6.338  -4.586  0.00  0.00    -0.017 S 
BRANCH  21  23
ATOM     23  N   LIG     1      -4.255  -8.548  -3.195  0.00  0.00    -0.325 N 
ATOM     24  H   LIG     1      -3.956  -8.916  -2.303  0.00  0.00    +0.148 HD
BRANCH  23  25
ATOM     25  C   LIG     1      -4.534  -9.420  -4.294  0.00  0.00    +0.114 C 
BRANCH  25  26
ATOM     26  C   LIG     1      -4.208 -10.896  -3.982  0.00  0.00    +0.093 C 
BRANCH  26  27
ATOM     27  S   LIG     1      -4.672 -11.948  -5.399  0.00  0.00    -0.124 S 
BRANCH  27  28
ATOM     28  C   LIG     1      -4.418 -13.595  -4.844  0.00  0.00    +0.008 A 
ATOM     29  C   LIG     1      -3.154 -14.206  -4.978  0.00  0.00    +0.015 A 
ATOM     30  C   LIG     1      -2.968 -15.541  -4.572  0.00  0.00    +0.001 A 
ATOM     31  C   LIG     1      -4.042 -16.268  -4.026  0.00  0.00    +0.000 A 
ATOM     32  C   LIG     1      -5.302 -15.658  -3.880  0.00  0.00    +0.001 A 
ATOM     33  C   LIG     1      -5.490 -14.323  -4.287  0.00  0.00    +0.015 A 
ENDBRANCH  27  28
ENDBRANCH  26  27
ENDBRANCH  25  26
ENDBRANCH  23  25
ENDBRANCH  21  23
ENDBRANCH  19  21
ENDBRANCH   3  19
BRANCH   2  34
ATOM     34  S   LIG     1      -3.461  -5.417   0.651  0.00  0.00    -0.107 S 
ATOM     35  H   LIG     1      -3.450  -6.735   0.571  0.00  0.00    +0.110 HD
ENDBRANCH   2  34
TORSDOF 10
