REMARK    Small molecule (ligand)
REMARK    Compound: PV-001964785068_1_T1
REMARK    SMILES: OC1(CC(CNC(=O)NCCC2=NNC(=S)N2C2CC2)(C1)C1=CC=CC=C1)C(F)(F)F
REMARK    The ligand was originally not a salt, therefore no desalting was carried out.
REMARK    The tautomeric state was generated by cxcalc version 18.20.0 of ChemAxons JChem Suite.
REMARK    Protonation state was generated at pH 7.4 by cxcalc version 18.20.0 of ChemAxons JChem Suite.
REMARK    Generation of the 3D conformation was carried out by molconvert version 18.20.0 of ChemAxons JChem Suite.
REMARK    Generation of the the target format file (pdbqt) was carried out by Open Babel version 2.4.1.
REMARK    Created on Tue Nov 13 12:59:11 EST 2018
REMARK  9 active torsions:
REMARK  status: ('A' for Active; 'I' for Inactive)
REMARK    1  A    between atoms: _1  and  _2
REMARK    2  A    between atoms: _2  and  _28
REMARK    3  A    between atoms: _4  and  _5
REMARK    4  A    between atoms: _4  and  _22
REMARK    5  A    between atoms: _5  and  _6
REMARK    6  A    between atoms: _9  and  _10
REMARK    7  A    between atoms: _10  and  _11
REMARK    8  A    between atoms: _11  and  _12
REMARK    9  A    between atoms: _17  and  _18
REMARK                            x       y       z     vdW  Elec       q    Type
REMARK                         _______ _______ _______ _____ _____    ______ ____
ROOT
ATOM      1  N   LIG     1      -0.274  -1.521   2.078  0.00  0.00    -0.299 N 
ATOM      2  H   LIG     1      -1.202  -1.314   1.738  0.00  0.00    +0.150 HD
ATOM      3  C   LIG     1      -0.187  -1.809   3.404  0.00  0.00    +0.300 C 
ATOM      4  N   LIG     1      -1.302  -1.714   4.181  0.00  0.00    -0.299 N 
ATOM      5  H   LIG     1      -2.131  -1.364   3.721  0.00  0.00    +0.150 HD
ATOM      6  O   LIG     1       0.910  -2.160   3.906  0.00  0.00    -0.253 OA
ENDROOT
BRANCH   1   7
ATOM      7  C   LIG     1       0.857  -1.503   1.199  0.00  0.00    +0.117 C 
BRANCH   7  10
ATOM      8  C   LIG     1       1.119   0.221  -1.625  0.00  0.00    +0.162 C 
ATOM      9  C   LIG     1      -0.146  -0.144  -0.811  0.00  0.00    +0.057 C 
ATOM     10  C   LIG     1       0.489  -1.485  -0.320  0.00  0.00    +0.017 C 
ATOM     11  C   LIG     1       1.733  -1.132  -1.204  0.00  0.00    +0.057 C 
BRANCH  10  12
ATOM     12  C   LIG     1      -0.238  -2.753  -0.696  0.00  0.00    -0.040 A 
ATOM     13  C   LIG     1      -1.654  -2.835  -0.670  0.00  0.00    +0.004 A 
ATOM     14  C   LIG     1      -2.323  -4.028  -1.009  0.00  0.00    +0.000 A 
ATOM     15  C   LIG     1      -1.590  -5.171  -1.369  0.00  0.00    +0.000 A 
ATOM     16  C   LIG     1      -0.185  -5.128  -1.351  0.00  0.00    +0.000 A 
ATOM     17  C   LIG     1       0.482  -3.935  -1.010  0.00  0.00    +0.004 A 
ENDBRANCH  10  12
BRANCH   8  18
ATOM     18  C   LIG     1       1.873   1.510  -1.178  0.00  0.00    +0.418 C 
ATOM     19  F   LIG     1       1.131   2.618  -1.506  0.00  0.00    -0.168 F 
ATOM     20  F   LIG     1       2.125   1.560   0.173  0.00  0.00    -0.168 F 
ATOM     21  F   LIG     1       3.076   1.603  -1.832  0.00  0.00    -0.168 F 
ENDBRANCH   8  18
BRANCH   8  22
ATOM     22  O   LIG     1       0.879   0.233  -3.036  0.00  0.00    -0.380 OA
ATOM     23  H   LIG     1       0.825  -0.669  -3.360  0.00  0.00    +0.211 HD
ENDBRANCH   8  22
ENDBRANCH   7  10
ENDBRANCH   1   7
BRANCH   4  24
ATOM     24  C   LIG     1      -1.326  -2.080   5.564  0.00  0.00    +0.113 C 
BRANCH  24  25
ATOM     25  C   LIG     1      -2.556  -1.552   6.343  0.00  0.00    +0.095 C 
BRANCH  25  26
ATOM     26  C   LIG     1      -2.531  -1.981   7.766  0.00  0.00    +0.134 A 
ATOM     27  N   LIG     1      -3.576  -2.291   8.567  0.00  0.00    -0.304 N 
ATOM     28  C   LIG     1      -3.041  -2.714   9.729  0.00  0.00    +0.176 A 
ATOM     29  S   LIG     1      -3.856  -3.331  11.127  0.00  0.00    -0.011 S 
ATOM     30  N   LIG     1      -1.713  -2.602   9.635  0.00  0.00    -0.254 N 
ATOM     31  H   LIG     1      -1.037  -2.825  10.352  0.00  0.00    +0.191 HD
ATOM     32  N   LIG     1      -1.396  -2.157   8.469  0.00  0.00    -0.158 NA
BRANCH  27  33
ATOM     33  C   LIG     1      -4.973  -2.230   8.249  0.00  0.00    +0.091 C 
ATOM     34  C   LIG     1      -5.539  -0.893   7.735  0.00  0.00    +0.027 C 
ATOM     35  C   LIG     1      -5.898  -1.373   9.139  0.00  0.00    +0.027 C 
ENDBRANCH  27  33
ENDBRANCH  25  26
ENDBRANCH  24  25
ENDBRANCH   4  24
TORSDOF 9
