REMARK    Small molecule (ligand)
REMARK    Compound: PV-001963676970_1_T1
REMARK    SMILES: CCN1C(=S)NN=C1CCNC(=O)NNC1=CC=CC(OC(F)F)=C1Br
REMARK    The ligand was originally not a salt, therefore no desalting was carried out.
REMARK    The tautomeric state was generated by cxcalc version 18.20.0 of ChemAxons JChem Suite.
REMARK    Protonation state was generated at pH 7.4 by cxcalc version 18.20.0 of ChemAxons JChem Suite.
REMARK    Generation of the 3D conformation was carried out by molconvert version 18.20.0 of ChemAxons JChem Suite.
REMARK    Generation of the the target format file (pdbqt) was carried out by Open Babel version 2.4.1.
REMARK    Created on Tue Nov 13 13:45:08 EST 2018
REMARK  9 active torsions:
REMARK  status: ('A' for Active; 'I' for Inactive)
REMARK    1  A    between atoms: _1  and  _2
REMARK    2  A    between atoms: _2  and  _3
REMARK    3  A    between atoms: _8  and  _9
REMARK    4  A    between atoms: _9  and  _10
REMARK    5  A    between atoms: _10  and  _11
REMARK    6  A    between atoms: _14  and  _15
REMARK    7  A    between atoms: _15  and  _16
REMARK    8  A    between atoms: _20  and  _21
REMARK    9  A    between atoms: _21  and  _22
REMARK                            x       y       z     vdW  Elec       q    Type
REMARK                         _______ _______ _______ _____ _____    ______ ____
ROOT
ATOM      1  N   LIG     1      -2.401  -2.563   0.499  0.00  0.00    -0.298 N 
ATOM      2  H   LIG     1      -2.422  -2.401   1.496  0.00  0.00    +0.150 HD
ATOM      3  C   LIG     1      -1.356  -1.988  -0.147  0.00  0.00    +0.316 C 
ATOM      4  N   LIG     1      -0.456  -1.298   0.591  0.00  0.00    -0.220 N 
ATOM      5  H   LIG     1      -0.619  -1.186   1.582  0.00  0.00    +0.174 HD
ATOM      6  O   LIG     1      -1.219  -2.085  -1.390  0.00  0.00    -0.251 OA
ENDROOT
BRANCH   4   7
ATOM      7  N   LIG     1       0.657  -0.753   0.041  0.00  0.00    -0.262 N 
ATOM      8  H   LIG     1       0.990  -0.999  -0.880  0.00  0.00    +0.170 HD
BRANCH   7   9
ATOM      9  C   LIG     1       1.255   0.173   0.917  0.00  0.00    +0.062 A 
ATOM     10  C   LIG     1       0.727   1.476   1.091  0.00  0.00    +0.082 A 
ATOM     11 BR   LIG     1      -0.829   1.993   0.195  0.00  0.00    -0.045 Br
ATOM     12  C   LIG     1       1.391   2.402   1.927  0.00  0.00    +0.143 A 
ATOM     13  C   LIG     1       2.592   2.031   2.565  0.00  0.00    +0.047 A 
ATOM     14  C   LIG     1       3.104   0.731   2.415  0.00  0.00    +0.005 A 
ATOM     15  C   LIG     1       2.440  -0.194   1.589  0.00  0.00    +0.026 A 
BRANCH  12  16
ATOM     16  O   LIG     1       0.899   3.670   2.091  0.00  0.00    -0.433 OA
BRANCH  16  17
ATOM     17  C   LIG     1       0.047   3.825   3.243  0.00  0.00    +0.541 C 
ATOM     18  F   LIG     1      -0.509   5.076   3.188  0.00  0.00    -0.166 F 
ATOM     19  F   LIG     1       0.746   3.734   4.423  0.00  0.00    -0.166 F 
ENDBRANCH  16  17
ENDBRANCH  12  16
ENDBRANCH   7   9
ENDBRANCH   4   7
BRANCH   1  20
ATOM     20  C   LIG     1      -3.418  -3.347  -0.134  0.00  0.00    +0.113 C 
BRANCH  20  21
ATOM     21  C   LIG     1      -4.555  -3.747   0.853  0.00  0.00    +0.095 C 
BRANCH  21  23
ATOM     22  N   LIG     1      -6.633  -2.260   0.881  0.00  0.00    -0.307 N 
ATOM     23  C   LIG     1      -5.899  -3.300   0.419  0.00  0.00    +0.133 A 
ATOM     24  N   LIG     1      -6.598  -3.933  -0.541  0.00  0.00    -0.159 NA
ATOM     25  N   LIG     1      -7.730  -3.326  -0.662  0.00  0.00    -0.254 N 
ATOM     26  H   LIG     1      -8.445  -3.606  -1.317  0.00  0.00    +0.191 HD
ATOM     27  C   LIG     1      -7.794  -2.301   0.194  0.00  0.00    +0.176 A 
ATOM     28  S   LIG     1      -9.175  -1.263   0.336  0.00  0.00    -0.011 S 
BRANCH  22  30
ATOM     29  C   LIG     1      -6.690  -1.756   3.299  0.00  0.00    +0.027 C 
ATOM     30  C   LIG     1      -6.262  -1.300   1.888  0.00  0.00    +0.122 C 
ENDBRANCH  22  30
ENDBRANCH  21  23
ENDBRANCH  20  21
ENDBRANCH   1  20
TORSDOF 8
