REMARK    Small molecule (ligand)
REMARK    Compound: PV-001964777835_2_T1
REMARK    SMILES: CC(C)N1C(=S)NN=C1CCNC(=O)NC[C@@H](CO)CC1=CC=C(Br)C=C1
REMARK    The ligand was originally not a salt, therefore no desalting was carried out.
REMARK    The tautomeric state was generated by cxcalc version 18.20.0 of ChemAxons JChem Suite.
REMARK    Protonation state was generated at pH 7.4 by cxcalc version 18.20.0 of ChemAxons JChem Suite.
REMARK    Generation of the 3D conformation was carried out by molconvert version 18.20.0 of ChemAxons JChem Suite.
REMARK    Generation of the the target format file (pdbqt) was carried out by Open Babel version 2.4.1.
REMARK    Created on Tue Nov 13 13:45:02 EST 2018
REMARK  12 active torsions:
REMARK  status: ('A' for Active; 'I' for Inactive)
REMARK    1  A    between atoms: _1  and  _2
REMARK    2  A    between atoms: _2  and  _3
REMARK    3  A    between atoms: _2  and  _4
REMARK    4  A    between atoms: _9  and  _10
REMARK    5  A    between atoms: _10  and  _11
REMARK    6  A    between atoms: _11  and  _12
REMARK    7  A    between atoms: _15  and  _16
REMARK    8  A    between atoms: _16  and  _17
REMARK    9  A    between atoms: _17  and  _18
REMARK   10  A    between atoms: _17  and  _20
REMARK   11  A    between atoms: _18  and  _19
REMARK   12  A    between atoms: _20  and  _21
REMARK                            x       y       z     vdW  Elec       q    Type
REMARK                         _______ _______ _______ _____ _____    ______ ____
ROOT
ATOM      1  N   LIG     1       1.103  -6.298  -0.063  0.00  0.00    -0.299 N 
ATOM      2  H   LIG     1       0.672  -6.075   0.822  0.00  0.00    +0.150 HD
ATOM      3  C   LIG     1       1.818  -5.274  -0.590  0.00  0.00    +0.300 C 
ATOM      4  N   LIG     1       1.886  -4.151   0.168  0.00  0.00    -0.299 N 
ATOM      5  H   LIG     1       1.378  -4.215   1.039  0.00  0.00    +0.150 HD
ATOM      6  O   LIG     1       2.396  -5.362  -1.700  0.00  0.00    -0.253 OA
ENDROOT
BRANCH   1   7
ATOM      7  C   LIG     1       0.921  -7.599  -0.627  0.00  0.00    +0.113 C 
BRANCH   7   8
ATOM      8  C   LIG     1       1.532  -8.662   0.321  0.00  0.00    +0.095 C 
BRANCH   8  10
ATOM      9  N   LIG     1      -0.184 -10.560   0.417  0.00  0.00    -0.305 N 
ATOM     10  C   LIG     1       1.018 -10.028   0.073  0.00  0.00    +0.134 A 
ATOM     11  N   LIG     1       1.758 -10.955  -0.558  0.00  0.00    -0.158 NA
ATOM     12  N   LIG     1       1.058 -12.032  -0.612  0.00  0.00    -0.254 N 
ATOM     13  H   LIG     1       1.383 -12.885  -1.045  0.00  0.00    +0.191 HD
ATOM     14  C   LIG     1      -0.127 -11.840  -0.022  0.00  0.00    +0.176 A 
ATOM     15  S   LIG     1      -1.295 -13.113   0.103  0.00  0.00    -0.011 S 
BRANCH   9  17
ATOM     16  C   LIG     1      -1.546 -10.517   2.514  0.00  0.00    +0.030 C 
ATOM     17  C   LIG     1      -1.275  -9.900   1.116  0.00  0.00    +0.085 C 
ATOM     18  C   LIG     1      -2.568  -9.804   0.261  0.00  0.00    +0.030 C 
ENDBRANCH   9  17
ENDBRANCH   8  10
ENDBRANCH   7   8
ENDBRANCH   1   7
BRANCH   4  19
ATOM     19  C   LIG     1       2.585  -2.950  -0.159  0.00  0.00    +0.111 C 
BRANCH  19  20
ATOM     20  C   LIG     1       1.731  -1.691   0.186  0.00  0.00    +0.036 C 
BRANCH  20  21
ATOM     21  C   LIG     1       0.502  -1.565  -0.774  0.00  0.00    +0.042 C 
BRANCH  21  22
ATOM     22  C   LIG     1      -0.441  -0.470  -0.404  0.00  0.00    -0.047 A 
ATOM     23  C   LIG     1      -0.503   0.729  -1.155  0.00  0.00    +0.005 A 
ATOM     24  C   LIG     1      -1.397   1.756  -0.800  0.00  0.00    +0.015 A 
ATOM     25  C   LIG     1      -2.245   1.597   0.310  0.00  0.00    +0.018 A 
ATOM     26 BR   LIG     1      -3.447   2.942   0.768  0.00  0.00    -0.050 Br
ATOM     27  C   LIG     1      -2.187   0.418   1.073  0.00  0.00    +0.015 A 
ATOM     28  C   LIG     1      -1.288  -0.605   0.721  0.00  0.00    +0.005 A 
ENDBRANCH  21  22
ENDBRANCH  20  21
BRANCH  20  29
ATOM     29  C   LIG     1       2.613  -0.407   0.162  0.00  0.00    +0.161 C 
BRANCH  29  30
ATOM     30  O   LIG     1       3.693  -0.483   1.088  0.00  0.00    -0.395 OA
ATOM     31  H   LIG     1       3.348  -0.459   1.983  0.00  0.00    +0.209 HD
ENDBRANCH  29  30
ENDBRANCH  20  29
ENDBRANCH  19  20
ENDBRANCH   4  19
TORSDOF 10
