REMARK    Small molecule (ligand)
REMARK    Compound: PV-001940904209_2_T1
REMARK    SMILES: CCN1CCN(CC1)c1ccc(NC(=O)NC[C@@H](CO)Cc2ccc(OC)c(O)c2)c(C)c1
REMARK    The ligand was originally not a salt, therefore no desalting was carried out.
REMARK    The tautomeric state was generated by cxcalc version 18.20.0 of ChemAxons JChem Suite.
REMARK    Protonation state was generated at pH 7.4 by cxcalc version 18.20.0 of ChemAxons JChem Suite.
REMARK    Generation of the 3D conformation was carried out by molconvert version 18.20.0 of ChemAxons JChem Suite.
REMARK    Generation of the the target format file (pdbqt) was carried out by Open Babel version 2.4.1.
REMARK    Created on Tue Nov 13 13:45:25 EST 2018
REMARK  14 active torsions:
REMARK  status: ('A' for Active; 'I' for Inactive)
REMARK    1  A    between atoms: _1  and  _2
REMARK    2  A    between atoms: _2  and  _3
REMARK    3  A    between atoms: _6  and  _9
REMARK    4  A    between atoms: _12  and  _13
REMARK    5  A    between atoms: _16  and  _17
REMARK    6  A    between atoms: _17  and  _18
REMARK    7  A    between atoms: _18  and  _19
REMARK    8  A    between atoms: _18  and  _21
REMARK    9  A    between atoms: _19  and  _20
REMARK   10  A    between atoms: _21  and  _22
REMARK   11  A    between atoms: _25  and  _26
REMARK   12  A    between atoms: _26  and  _27
REMARK   13  A    between atoms: _28  and  _29
REMARK   14  A    between atoms: _31  and  _32
REMARK                            x       y       z     vdW  Elec       q    Type
REMARK                         _______ _______ _______ _____ _____    ______ ____
ROOT
ATOM      1  N   LIG     1      -2.524  -0.117  -1.426  0.00  0.00    -0.269 N 
ATOM      2  H   LIG     1      -3.009   0.534  -2.027  0.00  0.00    +0.156 HD
ATOM      3  C   LIG     1      -3.007  -1.394  -1.485  0.00  0.00    +0.304 C 
ATOM      4  N   LIG     1      -4.012  -1.625  -2.374  0.00  0.00    -0.299 N 
ATOM      5  H   LIG     1      -4.306  -0.803  -2.882  0.00  0.00    +0.150 HD
ATOM      6  O   LIG     1      -2.585  -2.324  -0.759  0.00  0.00    -0.253 OA
ENDROOT
BRANCH   1  11
ATOM      7  C   LIG     1       0.592   1.638   0.870  0.00  0.00    +0.030 A 
ATOM      8  C   LIG     1      -0.317   2.425   0.129  0.00  0.00    +0.028 A 
ATOM      9  C   LIG     1      -1.358   1.845  -0.638  0.00  0.00    -0.027 A 
ATOM     10  C   LIG     1      -2.290   2.744  -1.372  0.00  0.00    +0.046 C 
ATOM     11  C   LIG     1      -1.492   0.425  -0.687  0.00  0.00    +0.038 A 
ATOM     12  C   LIG     1      -0.538  -0.359   0.007  0.00  0.00    +0.025 A 
ATOM     13  C   LIG     1       0.466   0.235   0.784  0.00  0.00    +0.025 A 
BRANCH   7  17
ATOM     14  N   LIG     1       3.686   3.754   2.827  0.00  0.00    -0.300 NA
ATOM     15  C   LIG     1       3.999   2.810   1.709  0.00  0.00    +0.103 C 
ATOM     16  C   LIG     1       2.933   1.693   1.627  0.00  0.00    +0.120 C 
ATOM     17  N   LIG     1       1.574   2.198   1.667  0.00  0.00    -0.327 N 
ATOM     18  C   LIG     1       1.259   3.221   2.644  0.00  0.00    +0.120 C 
ATOM     19  C   LIG     1       2.322   4.345   2.661  0.00  0.00    +0.103 C 
BRANCH  14  21
ATOM     20  C   LIG     1       4.682   5.411   4.472  0.00  0.00    +0.020 C 
ATOM     21  C   LIG     1       4.779   4.745   3.081  0.00  0.00    +0.081 C 
ENDBRANCH  14  21
ENDBRANCH   7  17
ENDBRANCH   1  11
BRANCH   4  22
ATOM     22  C   LIG     1      -4.647  -2.887  -2.625  0.00  0.00    +0.111 C 
BRANCH  22  23
ATOM     23  C   LIG     1      -4.717  -3.250  -4.144  0.00  0.00    +0.036 C 
BRANCH  23  24
ATOM     24  C   LIG     1      -5.550  -4.566  -4.336  0.00  0.00    +0.042 C 
BRANCH  24  25
ATOM     25  C   LIG     1      -5.857  -4.921  -5.753  0.00  0.00    -0.043 A 
ATOM     26  C   LIG     1      -5.343  -6.100  -6.345  0.00  0.00    +0.052 A 
ATOM     27  C   LIG     1      -5.637  -6.427  -7.684  0.00  0.00    +0.159 A 
ATOM     28  C   LIG     1      -6.474  -5.585  -8.445  0.00  0.00    +0.161 A 
ATOM     29  C   LIG     1      -6.993  -4.410  -7.864  0.00  0.00    +0.049 A 
ATOM     30  C   LIG     1      -6.691  -4.085  -6.530  0.00  0.00    +0.007 A 
BRANCH  27  31
ATOM     31  O   LIG     1      -5.129  -7.553  -8.252  0.00  0.00    -0.503 OA
ATOM     32  H   LIG     1      -4.853  -8.162  -7.563  0.00  0.00    +0.292 HD
ENDBRANCH  27  31
BRANCH  28  33
ATOM     33  O   LIG     1      -6.760  -5.886  -9.751  0.00  0.00    -0.491 OA
ATOM     34  C   LIG     1      -8.001  -6.596  -9.908  0.00  0.00    +0.277 C 
ENDBRANCH  28  33
ENDBRANCH  24  25
ENDBRANCH  23  24
BRANCH  23  35
ATOM     35  C   LIG     1      -3.305  -3.357  -4.795  0.00  0.00    +0.161 C 
BRANCH  35  36
ATOM     36  O   LIG     1      -2.623  -2.106  -4.788  0.00  0.00    -0.395 OA
ATOM     37  H   LIG     1      -2.472  -1.829  -3.881  0.00  0.00    +0.209 HD
ENDBRANCH  35  36
ENDBRANCH  23  35
ENDBRANCH  22  23
ENDBRANCH   4  22
TORSDOF 11
