REMARK    Small molecule (ligand)
REMARK    Compound: PV-001918580496_4_T1
REMARK    SMILES: C[C@@H](NC[C@@H](O)COc1ccc2NC(=O)CCc2c1)c1cc(F)ccc1N1CCC(O)CC1
REMARK    The ligand was originally not a salt, therefore no desalting was carried out.
REMARK    The tautomeric state was generated by cxcalc version 18.20.0 of ChemAxons JChem Suite.
REMARK    Protonation state was generated at pH 7.4 by cxcalc version 18.20.0 of ChemAxons JChem Suite.
REMARK    Generation of the 3D conformation was carried out by molconvert version 18.20.0 of ChemAxons JChem Suite.
REMARK    Generation of the the target format file (pdbqt) was carried out by Open Babel version 2.4.1.
REMARK    Created on Tue Nov 13 13:45:36 EST 2018
REMARK  11 active torsions:
REMARK  status: ('A' for Active; 'I' for Inactive)
REMARK    1  A    between atoms: _1  and  _2
REMARK    2  A    between atoms: _2  and  _3
REMARK    3  A    between atoms: _2  and  _20
REMARK    4  A    between atoms: _3  and  _4
REMARK    5  A    between atoms: _4  and  _5
REMARK    6  A    between atoms: _5  and  _6
REMARK    7  A    between atoms: _5  and  _7
REMARK    8  A    between atoms: _7  and  _8
REMARK    9  A    between atoms: _8  and  _9
REMARK   10  A    between atoms: _26  and  _27
REMARK   11  A    between atoms: _30  and  _31
REMARK                            x       y       z     vdW  Elec       q    Type
REMARK                         _______ _______ _______ _____ _____    ______ ____
ROOT
ATOM      1  N   LIG     1       1.495   2.799   4.320  0.00  0.00    -0.307 NA
ATOM      2  H   LIG     1       2.015   3.198   3.551  0.00  0.00    +0.123 HD
ENDROOT
BRANCH   1   4
ATOM      3  C   LIG     1       3.113   3.948   5.853  0.00  0.00    +0.029 C 
ATOM      4  C   LIG     1       2.001   2.872   5.715  0.00  0.00    +0.083 C 
BRANCH   4   5
ATOM      5  C   LIG     1       2.453   1.565   6.303  0.00  0.00    -0.007 A 
ATOM      6  C   LIG     1       3.051   0.494   5.566  0.00  0.00    +0.035 A 
ATOM      7  C   LIG     1       3.520  -0.646   6.261  0.00  0.00    +0.026 A 
ATOM      8  C   LIG     1       3.369  -0.764   7.650  0.00  0.00    +0.040 A 
ATOM      9  C   LIG     1       2.732   0.254   8.373  0.00  0.00    +0.124 A 
ATOM     10  F   LIG     1       2.556   0.132   9.660  0.00  0.00    -0.205 F 
ATOM     11  C   LIG     1       2.290   1.408   7.705  0.00  0.00    +0.045 A 
BRANCH   6  12
ATOM     12  N   LIG     1       3.217   0.471   4.198  0.00  0.00    -0.329 N 
ATOM     13  C   LIG     1       2.420  -0.409   3.363  0.00  0.00    +0.107 C 
ATOM     14  C   LIG     1       3.310  -1.402   2.569  0.00  0.00    +0.050 C 
ATOM     15  C   LIG     1       4.482  -0.680   1.852  0.00  0.00    +0.118 C 
ATOM     16  C   LIG     1       5.238   0.279   2.810  0.00  0.00    +0.050 C 
ATOM     17  C   LIG     1       4.267   1.228   3.560  0.00  0.00    +0.107 C 
BRANCH  15  18
ATOM     18  O   LIG     1       5.389  -1.644   1.321  0.00  0.00    -0.392 OA
ATOM     19  H   LIG     1       5.823  -2.105   2.043  0.00  0.00    +0.210 HD
ENDBRANCH  15  18
ENDBRANCH   6  12
ENDBRANCH   4   5
ENDBRANCH   1   4
BRANCH   1  20
ATOM     20  C   LIG     1       0.194   2.113   4.102  0.00  0.00    +0.116 C 
BRANCH  20  21
ATOM     21  C   LIG     1      -1.043   2.869   4.658  0.00  0.00    +0.166 C 
BRANCH  21  22
ATOM     22  O   LIG     1      -1.077   4.199   4.142  0.00  0.00    -0.387 OA
ATOM     23  H   LIG     1      -1.094   4.825   4.871  0.00  0.00    +0.210 HD
ENDBRANCH  21  22
BRANCH  21  24
ATOM     24  C   LIG     1      -2.373   2.153   4.327  0.00  0.00    +0.261 C 
BRANCH  24  25
ATOM     25  O   LIG     1      -3.442   2.844   5.012  0.00  0.00    -0.489 OA
BRANCH  25  26
ATOM     26  C   LIG     1      -4.655   2.223   4.892  0.00  0.00    +0.121 A 
ATOM     27  C   LIG     1      -5.457   2.444   3.754  0.00  0.00    +0.051 A 
ATOM     28  C   LIG     1      -6.691   1.769   3.610  0.00  0.00    -0.022 A 
ATOM     29  C   LIG     1      -7.546   1.989   2.417  0.00  0.00    +0.046 C 
ATOM     30  C   LIG     1      -8.592   0.787   2.115  0.00  0.00    +0.101 C 
ATOM     31  C   LIG     1      -9.025   0.133   3.373  0.00  0.00    +0.218 C 
ATOM     32  O   LIG     1     -10.077  -0.546   3.395  0.00  0.00    -0.275 OA
ATOM     33  N   LIG     1      -8.288   0.184   4.510  0.00  0.00    -0.285 N 
ATOM     34  H   LIG     1      -8.625  -0.324   5.316  0.00  0.00    +0.155 HD
ATOM     35  C   LIG     1      -7.124   0.878   4.626  0.00  0.00    +0.037 A 
ATOM     36  C   LIG     1      -6.334   0.686   5.776  0.00  0.00    +0.027 A 
ATOM     37  C   LIG     1      -5.110   1.365   5.914  0.00  0.00    +0.047 A 
ENDBRANCH  25  26
ENDBRANCH  24  25
ENDBRANCH  21  24
ENDBRANCH  20  21
ENDBRANCH   1  20
TORSDOF 10
