REMARK    Small molecule (ligand)
REMARK    Compound: PV-001869645472_1_T3
REMARK    SMILES: COC1=CC=C(C=C1)C1=NN=C(S)N1CCC(=O)NNC(=S)NC1=CC(=CC=C1)C#C
REMARK    The ligand was originally not a salt, therefore no desalting was carried out.
REMARK    The tautomeric state was generated by cxcalc version 18.20.0 of ChemAxons JChem Suite.
REMARK    Protonation state was generated at pH 7.4 by cxcalc version 18.20.0 of ChemAxons JChem Suite.
REMARK    Generation of the 3D conformation was carried out by molconvert version 18.20.0 of ChemAxons JChem Suite.
REMARK    Generation of the the target format file (pdbqt) was carried out by Open Babel version 2.4.1.
REMARK    Created on Tue Nov 13 12:59:29 EST 2018
REMARK  12 active torsions:
REMARK  status: ('A' for Active; 'I' for Inactive)
REMARK    1  A    between atoms: _1  and  _2
REMARK    2  A    between atoms: _2  and  _3
REMARK    3  A    between atoms: _6  and  _9
REMARK    4  A    between atoms: _12  and  _13
REMARK    5  A    between atoms: _14  and  _15
REMARK    6  A    between atoms: _15  and  _16
REMARK    7  A    between atoms: _16  and  _17
REMARK    8  A    between atoms: _19  and  _20
REMARK    9  A    between atoms: _20  and  _21
REMARK   10  A    between atoms: _21  and  _23
REMARK   11  A    between atoms: _23  and  _24
REMARK   12  A    between atoms: _26  and  _30
REMARK                            x       y       z     vdW  Elec       q    Type
REMARK                         _______ _______ _______ _____ _____    ______ ____
ROOT
ATOM      1  C   LIG     1       1.325   5.947   3.884  0.00  0.00    +0.231 C 
ATOM      2  N   LIG     1       2.268   5.152   3.320  0.00  0.00    -0.235 N 
ATOM      3  H   LIG     1       2.002   4.224   3.023  0.00  0.00    +0.173 HD
ATOM      4  O   LIG     1       1.612   7.106   4.266  0.00  0.00    -0.274 OA
ENDROOT
BRANCH   2   5
ATOM      5  N   LIG     1       3.550   5.540   3.134  0.00  0.00    -0.246 N 
ATOM      6  H   LIG     1       4.041   6.217   3.699  0.00  0.00    +0.172 HD
BRANCH   5   7
ATOM      7  C   LIG     1       4.056   4.859   2.055  0.00  0.00    +0.151 C 
ATOM      8  S   LIG     1       4.739   3.328   2.354  0.00  0.00    -0.017 S 
BRANCH   7   9
ATOM      9  N   LIG     1       4.044   5.258   0.785  0.00  0.00    -0.296 N 
ATOM     10  H   LIG     1       4.286   4.514   0.147  0.00  0.00    +0.154 HD
BRANCH   9  11
ATOM     11  C   LIG     1       3.768   6.472   0.214  0.00  0.00    +0.034 A 
ATOM     12  C   LIG     1       3.900   6.515  -1.193  0.00  0.00    +0.023 A 
ATOM     13  C   LIG     1       3.665   7.702  -1.909  0.00  0.00    +0.003 A 
ATOM     14  C   LIG     1       3.293   8.873  -1.229  0.00  0.00    +0.017 A 
ATOM     15  C   LIG     1       3.155   8.859   0.175  0.00  0.00    +0.026 A 
ATOM     16  C   LIG     1       3.401   7.664   0.892  0.00  0.00    +0.040 A 
BRANCH  15  17
ATOM     17  C   LIG     1       2.802   9.953   0.792  0.00  0.00    -0.070 C 
ATOM     18  C   LIG     1       2.471  10.964   1.335  0.00  0.00    +0.009 C 
ENDBRANCH  15  17
ENDBRANCH   9  11
ENDBRANCH   7   9
ENDBRANCH   5   7
ENDBRANCH   2   5
BRANCH   1  19
ATOM     19  C   LIG     1      -0.050   5.428   4.068  0.00  0.00    +0.119 C 
BRANCH  19  20
ATOM     20  C   LIG     1      -0.073   4.129   4.918  0.00  0.00    +0.135 C 
BRANCH  20  22
ATOM     21  C   LIG     1      -1.996   2.577   4.491  0.00  0.00    +0.165 A 
ATOM     22  N   LIG     1      -1.388   3.587   5.151  0.00  0.00    -0.302 N 
ATOM     23  C   LIG     1      -2.239   3.911   6.145  0.00  0.00    +0.189 A 
ATOM     24  N   LIG     1      -3.310   3.107   6.093  0.00  0.00    -0.122 NA
ATOM     25  N   LIG     1      -3.162   2.300   5.095  0.00  0.00    -0.128 NA
BRANCH  21  29
ATOM     26  C   LIG     1      -0.494   0.505   1.115  0.00  0.00    +0.120 A 
ATOM     27  C   LIG     1      -0.865   1.860   1.010  0.00  0.00    +0.046 A 
ATOM     28  C   LIG     1      -1.385   2.540   2.125  0.00  0.00    +0.015 A 
ATOM     29  C   LIG     1      -1.526   1.878   3.363  0.00  0.00    +0.020 A 
ATOM     30  C   LIG     1      -1.187   0.510   3.457  0.00  0.00    +0.015 A 
ATOM     31  C   LIG     1      -0.686  -0.175   2.335  0.00  0.00    +0.046 A 
BRANCH  26  33
ATOM     32  C   LIG     1       1.464  -0.064  -0.020  0.00  0.00    +0.277 C 
ATOM     33  O   LIG     1       0.028  -0.146   0.032  0.00  0.00    -0.495 OA
ENDBRANCH  26  33
ENDBRANCH  21  29
BRANCH  23  34
ATOM     34  S   LIG     1      -2.047   5.134   7.367  0.00  0.00    -0.103 S 
ATOM     35  H   LIG     1      -2.134   4.580   8.562  0.00  0.00    +0.110 HD
ENDBRANCH  23  34
ENDBRANCH  20  22
ENDBRANCH  19  20
ENDBRANCH   1  19
TORSDOF 11
