REMARK    Small molecule (ligand)
REMARK    Compound: PV-001955441328_2_T2
REMARK    SMILES: CC(C)N1C(CCNC(=O)N[C@H](C)C2=CC(F)=CC=C2N2CCC(O)CC2)N=NC1=S
REMARK    The ligand was originally not a salt, therefore no desalting was carried out.
REMARK    The tautomeric state was generated by cxcalc version 18.20.0 of ChemAxons JChem Suite.
REMARK    Protonation state was generated at pH 7.4 by cxcalc version 18.20.0 of ChemAxons JChem Suite.
REMARK    Generation of the 3D conformation was carried out by molconvert version 18.20.0 of ChemAxons JChem Suite.
REMARK    Generation of the the target format file (pdbqt) was carried out by Open Babel version 2.4.1.
REMARK    Created on Tue Nov 13 12:59:15 EST 2018
REMARK  11 active torsions:
REMARK  status: ('A' for Active; 'I' for Inactive)
REMARK    1  A    between atoms: _1  and  _2
REMARK    2  A    between atoms: _2  and  _3
REMARK    3  A    between atoms: _2  and  _4
REMARK    4  A    between atoms: _5  and  _6
REMARK    5  A    between atoms: _6  and  _7
REMARK    6  A    between atoms: _7  and  _8
REMARK    7  A    between atoms: _11  and  _12
REMARK    8  A    between atoms: _12  and  _13
REMARK    9  A    between atoms: _12  and  _14
REMARK   10  A    between atoms: _20  and  _21
REMARK   11  A    between atoms: _24  and  _25
REMARK                            x       y       z     vdW  Elec       q    Type
REMARK                         _______ _______ _______ _____ _____    ______ ____
ROOT
ATOM      1  N   LIG     1       5.164  -2.419   3.698  0.00  0.00    -0.299 N 
ATOM      2  H   LIG     1       4.655  -3.141   3.208  0.00  0.00    +0.150 HD
ATOM      3  C   LIG     1       4.674  -2.120   4.930  0.00  0.00    +0.300 C 
ATOM      4  N   LIG     1       3.493  -2.686   5.284  0.00  0.00    -0.293 N 
ATOM      5  H   LIG     1       3.096  -3.299   4.586  0.00  0.00    +0.151 HD
ATOM      6  O   LIG     1       5.260  -1.318   5.697  0.00  0.00    -0.253 OA
ENDROOT
BRANCH   4   7
ATOM      7  C   LIG     1       2.817  -2.472   6.527  0.00  0.00    +0.103 C 
ATOM      8  C   LIG     1       1.751  -3.582   6.711  0.00  0.00    +0.033 C 
BRANCH   7   9
ATOM      9  C   LIG     1       2.239  -1.099   6.759  0.00  0.00    -0.004 A 
ATOM     10  C   LIG     1       1.895  -0.148   5.743  0.00  0.00    +0.035 A 
ATOM     11  C   LIG     1       1.368   1.112   6.116  0.00  0.00    +0.026 A 
ATOM     12  C   LIG     1       1.183   1.455   7.462  0.00  0.00    +0.040 A 
ATOM     13  C   LIG     1       1.518   0.536   8.466  0.00  0.00    +0.124 A 
ATOM     14  F   LIG     1       1.346   0.852   9.721  0.00  0.00    -0.205 F 
ATOM     15  C   LIG     1       2.032  -0.724   8.114  0.00  0.00    +0.045 A 
BRANCH  10  16
ATOM     16  N   LIG     1       2.010  -0.364   4.388  0.00  0.00    -0.329 N 
ATOM     17  C   LIG     1       2.925   0.429   3.583  0.00  0.00    +0.107 C 
ATOM     18  C   LIG     1       2.194   1.155   2.424  0.00  0.00    +0.050 C 
ATOM     19  C   LIG     1       1.300   0.166   1.632  0.00  0.00    +0.118 C 
ATOM     20  C   LIG     1       0.339  -0.582   2.593  0.00  0.00    +0.050 C 
ATOM     21  C   LIG     1       1.131  -1.297   3.717  0.00  0.00    +0.107 C 
BRANCH  19  22
ATOM     22  O   LIG     1       0.561   0.861   0.633  0.00  0.00    -0.392 OA
ATOM     23  H   LIG     1      -0.067   1.453   1.053  0.00  0.00    +0.210 HD
ENDBRANCH  19  22
ENDBRANCH  10  16
ENDBRANCH   7   9
ENDBRANCH   4   7
BRANCH   1  24
ATOM     24  C   LIG     1       6.299  -1.802   3.088  0.00  0.00    +0.109 C 
BRANCH  24  25
ATOM     25  C   LIG     1       7.214  -2.826   2.365  0.00  0.00    +0.067 C 
BRANCH  25  31
ATOM     26  N   LIG     1       9.265  -2.940   0.857  0.00  0.00    -0.284 N 
ATOM     27  C   LIG     1       9.069  -2.761  -0.451  0.00  0.00    +0.179 C 
ATOM     28  S   LIG     1       9.833  -3.463  -1.802  0.00  0.00    -0.015 S 
ATOM     29  N   LIG     1       8.171  -1.883  -0.640  0.00  0.00    -0.098 NA
ATOM     30  N   LIG     1       7.730  -1.484   0.425  0.00  0.00    -0.173 NA
ATOM     31  C   LIG     1       8.308  -2.104   1.520  0.00  0.00    +0.215 C 
BRANCH  26  33
ATOM     32  C   LIG     1      11.481  -2.701   1.937  0.00  0.00    +0.028 C 
ATOM     33  C   LIG     1      10.315  -3.661   1.562  0.00  0.00    +0.071 C 
ATOM     34  C   LIG     1      10.859  -4.941   0.870  0.00  0.00    +0.028 C 
ENDBRANCH  26  33
ENDBRANCH  25  31
ENDBRANCH  24  25
ENDBRANCH   1  24
TORSDOF 8
