REMARK    Small molecule (ligand)
REMARK    Compound: PV-001922171628_1_T1
REMARK    SMILES: COCCNC(=O)c1c(NC(=O)CN[C@@]2(C[C@H](O)C2)c2ccccc2)sc2CCCCc12
REMARK    The ligand was originally not a salt, therefore no desalting was carried out.
REMARK    The tautomeric state was generated by cxcalc version 18.20.0 of ChemAxons JChem Suite.
REMARK    Protonation state was generated at pH 7.4 by cxcalc version 18.20.0 of ChemAxons JChem Suite.
REMARK    Generation of the 3D conformation was carried out by molconvert version 18.20.0 of ChemAxons JChem Suite.
REMARK    Generation of the the target format file (pdbqt) was carried out by Open Babel version 2.4.1.
REMARK    Created on Tue Nov 13 13:45:28 EST 2018
REMARK  11 active torsions:
REMARK  status: ('A' for Active; 'I' for Inactive)
REMARK    1  A    between atoms: _1  and  _2
REMARK    2  A    between atoms: _2  and  _3
REMARK    3  A    between atoms: _3  and  _4
REMARK    4  A    between atoms: _4  and  _5
REMARK    5  A    between atoms: _6  and  _8
REMARK    6  A    between atoms: _9  and  _10
REMARK    7  A    between atoms: _11  and  _13
REMARK    8  A    between atoms: _13  and  _14
REMARK    9  A    between atoms: _14  and  _15
REMARK   10  A    between atoms: _15  and  _20
REMARK   11  A    between atoms: _17  and  _18
REMARK                            x       y       z     vdW  Elec       q    Type
REMARK                         _______ _______ _______ _____ _____    ______ ____
ROOT
ATOM      1  N   LIG     1      -3.317   0.437   5.139  0.00  0.00    -0.278 N 
ATOM      2  H   LIG     1      -2.704   1.005   4.572  0.00  0.00    +0.155 HD
ATOM      3  C   LIG     1      -2.816   0.047   6.344  0.00  0.00    +0.231 C 
ATOM      4  O   LIG     1      -3.309  -0.900   7.001  0.00  0.00    -0.274 OA
ENDROOT
BRANCH   1  13
ATOM      5  C   LIG     1      -4.989   0.575   3.328  0.00  0.00    +0.069 A 
ATOM      6  C   LIG     1      -6.402   0.491   3.136  0.00  0.00    -0.023 A 
ATOM      7  C   LIG     1      -7.157   1.003   1.952  0.00  0.00    +0.037 C 
ATOM      8  C   LIG     1      -8.701   1.074   2.146  0.00  0.00    +0.005 C 
ATOM      9  C   LIG     1      -9.256  -0.185   2.855  0.00  0.00    +0.005 C 
ATOM     10  C   LIG     1      -8.548  -0.443   4.215  0.00  0.00    +0.043 C 
ATOM     11  C   LIG     1      -7.099  -0.147   4.176  0.00  0.00    -0.004 A 
ATOM     12  S   LIG     1      -5.932  -0.538   5.421  0.00  0.00    -0.077 S 
ATOM     13  C   LIG     1      -4.543   0.157   4.602  0.00  0.00    +0.084 A 
BRANCH   5  16
ATOM     14  N   LIG     1      -2.833   0.502   2.240  0.00  0.00    -0.309 N 
ATOM     15  H   LIG     1      -2.641  -0.269   2.864  0.00  0.00    +0.149 HD
ATOM     16  C   LIG     1      -4.075   1.054   2.351  0.00  0.00    +0.247 C 
ATOM     17  O   LIG     1      -4.398   1.984   1.575  0.00  0.00    -0.270 OA
BRANCH  14  18
ATOM     18  C   LIG     1      -1.840   0.947   1.320  0.00  0.00    +0.132 C 
BRANCH  18  19
ATOM     19  C   LIG     1      -0.493   0.145   1.481  0.00  0.00    +0.178 C 
BRANCH  19  21
ATOM     20  C   LIG     1       1.797   0.325   0.699  0.00  0.00    +0.194 C 
ATOM     21  O   LIG     1       0.459   0.837   0.648  0.00  0.00    -0.381 OA
ENDBRANCH  19  21
ENDBRANCH  18  19
ENDBRANCH  14  18
ENDBRANCH   5  16
ENDBRANCH   1  13
BRANCH   3  22
ATOM     22  C   LIG     1      -1.702   0.809   6.944  0.00  0.00    +0.178 C 
BRANCH  22  23
ATOM     23  N   LIG     1      -0.430   0.050   6.969  0.00  0.00    -0.299 NA
ATOM     24  H   LIG     1      -0.267  -0.711   6.324  0.00  0.00    +0.123 HD
BRANCH  23  25
ATOM     25  C   LIG     1       0.591   0.462   7.985  0.00  0.00    +0.049 C 
ATOM     26  C   LIG     1       0.423  -0.354   9.305  0.00  0.00    +0.058 C 
ATOM     27  C   LIG     1       1.664  -1.203   8.980  0.00  0.00    +0.119 C 
ATOM     28  C   LIG     1       1.914  -0.327   7.742  0.00  0.00    +0.058 C 
BRANCH  25  29
ATOM     29  C   LIG     1       0.778   1.956   8.064  0.00  0.00    -0.027 A 
ATOM     30  C   LIG     1       0.300   2.742   9.145  0.00  0.00    +0.005 A 
ATOM     31  C   LIG     1       0.434   4.144   9.141  0.00  0.00    +0.000 A 
ATOM     32  C   LIG     1       1.036   4.791   8.048  0.00  0.00    +0.000 A 
ATOM     33  C   LIG     1       1.513   4.032   6.967  0.00  0.00    +0.000 A 
ATOM     34  C   LIG     1       1.380   2.631   6.973  0.00  0.00    +0.005 A 
ENDBRANCH  25  29
BRANCH  27  35
ATOM     35  O   LIG     1       1.374  -2.565   8.666  0.00  0.00    -0.392 OA
ATOM     36  H   LIG     1       1.268  -3.065   9.479  0.00  0.00    +0.210 HD
ENDBRANCH  27  35
ENDBRANCH  23  25
ENDBRANCH  22  23
ENDBRANCH   3  22
TORSDOF 10
