REMARK    Small molecule (ligand)
REMARK    Compound: PV-001869645472_1_T2
REMARK    SMILES: COC1=CC=C(C=C1)C1N=NC(=S)N1CCC(=O)NNC(=S)NC1=CC(=CC=C1)C#C
REMARK    The ligand was originally not a salt, therefore no desalting was carried out.
REMARK    The tautomeric state was generated by cxcalc version 18.20.0 of ChemAxons JChem Suite.
REMARK    Protonation state was generated at pH 7.4 by cxcalc version 18.20.0 of ChemAxons JChem Suite.
REMARK    Generation of the 3D conformation was carried out by molconvert version 18.20.0 of ChemAxons JChem Suite.
REMARK    Generation of the the target format file (pdbqt) was carried out by Open Babel version 2.4.1.
REMARK    Created on Tue Nov 13 12:59:28 EST 2018
REMARK  11 active torsions:
REMARK  status: ('A' for Active; 'I' for Inactive)
REMARK    1  A    between atoms: _1  and  _2
REMARK    2  A    between atoms: _2  and  _3
REMARK    3  A    between atoms: _6  and  _9
REMARK    4  A    between atoms: _14  and  _15
REMARK    5  A    between atoms: _15  and  _16
REMARK    6  A    between atoms: _16  and  _17
REMARK    7  A    between atoms: _19  and  _20
REMARK    8  A    between atoms: _20  and  _21
REMARK    9  A    between atoms: _21  and  _23
REMARK   10  A    between atoms: _23  and  _24
REMARK   11  A    between atoms: _26  and  _30
REMARK                            x       y       z     vdW  Elec       q    Type
REMARK                         _______ _______ _______ _____ _____    ______ ____
ROOT
ATOM      1  C   LIG     1       1.083   6.429   5.962  0.00  0.00    +0.231 C 
ATOM      2  N   LIG     1       1.797   5.839   6.950  0.00  0.00    -0.235 N 
ATOM      3  H   LIG     1       1.372   5.084   7.471  0.00  0.00    +0.173 HD
ATOM      4  O   LIG     1       1.571   7.382   5.307  0.00  0.00    -0.274 OA
ENDROOT
BRANCH   2   5
ATOM      5  N   LIG     1       3.059   6.220   7.266  0.00  0.00    -0.246 N 
ATOM      6  H   LIG     1       3.351   7.185   7.322  0.00  0.00    +0.172 HD
BRANCH   5   7
ATOM      7  C   LIG     1       3.878   5.146   7.498  0.00  0.00    +0.151 C 
ATOM      8  S   LIG     1       3.688   4.310   8.970  0.00  0.00    -0.017 S 
BRANCH   7   9
ATOM      9  N   LIG     1       4.835   4.693   6.690  0.00  0.00    -0.296 N 
ATOM     10  H   LIG     1       5.348   3.924   7.096  0.00  0.00    +0.154 HD
BRANCH   9  11
ATOM     11  C   LIG     1       5.227   5.085   5.436  0.00  0.00    +0.034 A 
ATOM     12  C   LIG     1       6.067   4.166   4.767  0.00  0.00    +0.023 A 
ATOM     13  C   LIG     1       6.553   4.431   3.476  0.00  0.00    +0.003 A 
ATOM     14  C   LIG     1       6.209   5.627   2.828  0.00  0.00    +0.017 A 
ATOM     15  C   LIG     1       5.364   6.561   3.467  0.00  0.00    +0.026 A 
ATOM     16  C   LIG     1       4.888   6.292   4.772  0.00  0.00    +0.040 A 
BRANCH  15  17
ATOM     17  C   LIG     1       5.041   7.659   2.839  0.00  0.00    -0.070 C 
ATOM     18  C   LIG     1       4.751   8.652   2.242  0.00  0.00    +0.009 C 
ENDBRANCH  15  17
ENDBRANCH   9  11
ENDBRANCH   7   9
ENDBRANCH   5   7
ENDBRANCH   2   5
BRANCH   1  19
ATOM     19  C   LIG     1      -0.303   5.987   5.682  0.00  0.00    +0.116 C 
BRANCH  19  20
ATOM     20  C   LIG     1      -0.384   4.689   4.828  0.00  0.00    +0.118 C 
BRANCH  20  22
ATOM     21  C   LIG     1      -1.880   2.645   4.629  0.00  0.00    +0.244 C 
ATOM     22  N   LIG     1      -1.689   4.064   4.701  0.00  0.00    -0.282 N 
ATOM     23  C   LIG     1      -2.903   4.601   4.584  0.00  0.00    +0.179 C 
ATOM     24  S   LIG     1      -3.370   6.225   4.375  0.00  0.00    -0.015 S 
ATOM     25  N   LIG     1      -3.784   3.682   4.579  0.00  0.00    -0.098 NA
ATOM     26  N   LIG     1      -3.261   2.578   4.606  0.00  0.00    -0.168 NA
BRANCH  21  30
ATOM     27  C   LIG     1      -0.379   0.586   1.116  0.00  0.00    +0.120 A 
ATOM     28  C   LIG     1      -0.695   1.956   1.042  0.00  0.00    +0.046 A 
ATOM     29  C   LIG     1      -1.179   2.633   2.176  0.00  0.00    +0.011 A 
ATOM     30  C   LIG     1      -1.345   1.960   3.413  0.00  0.00    -0.004 A 
ATOM     31  C   LIG     1      -1.031   0.581   3.469  0.00  0.00    +0.011 A 
ATOM     32  C   LIG     1      -0.560  -0.100   2.332  0.00  0.00    +0.046 A 
BRANCH  27  34
ATOM     33  C   LIG     1       1.504  -0.083  -0.097  0.00  0.00    +0.277 C 
ATOM     34  O   LIG     1       0.070  -0.077   0.007  0.00  0.00    -0.495 OA
ENDBRANCH  27  34
ENDBRANCH  21  30
ENDBRANCH  20  22
ENDBRANCH  19  20
ENDBRANCH   1  19
TORSDOF 10
