REMARK    Small molecule (ligand)
REMARK    Compound: PV-001920080488_2_T1
REMARK    SMILES: C[C@@](CO)(NCC(=O)Nc1cc(ccc1N1CCOCC1)C(F)(F)F)c1cccc(O)c1
REMARK    The ligand was originally not a salt, therefore no desalting was carried out.
REMARK    The tautomeric state was generated by cxcalc version 18.20.0 of ChemAxons JChem Suite.
REMARK    Protonation state was generated at pH 7.4 by cxcalc version 18.20.0 of ChemAxons JChem Suite.
REMARK    Generation of the 3D conformation was carried out by molconvert version 18.20.0 of ChemAxons JChem Suite.
REMARK    Generation of the the target format file (pdbqt) was carried out by Open Babel version 2.4.1.
REMARK    Created on Tue Nov 13 12:59:21 EST 2018
REMARK  11 active torsions:
REMARK  status: ('A' for Active; 'I' for Inactive)
REMARK    1  A    between atoms: _1  and  _2
REMARK    2  A    between atoms: _2  and  _3
REMARK    3  A    between atoms: _2  and  _5
REMARK    4  A    between atoms: _2  and  _26
REMARK    5  A    between atoms: _3  and  _4
REMARK    6  A    between atoms: _5  and  _6
REMARK    7  A    between atoms: _6  and  _7
REMARK    8  A    between atoms: _9  and  _10
REMARK    9  A    between atoms: _12  and  _22
REMARK   10  A    between atoms: _15  and  _16
REMARK   11  A    between atoms: _30  and  _31
REMARK                            x       y       z     vdW  Elec       q    Type
REMARK                         _______ _______ _______ _____ _____    ______ ____
ROOT
ATOM      1  C   LIG     1      -3.004  -1.487  -2.374  0.00  0.00    +0.231 C 
ATOM      2  N   LIG     1      -3.518  -0.340  -1.849  0.00  0.00    -0.283 N 
ATOM      3  H   LIG     1      -4.109   0.206  -2.460  0.00  0.00    +0.155 HD
ATOM      4  O   LIG     1      -2.298  -2.274  -1.698  0.00  0.00    -0.274 OA
ENDROOT
BRANCH   2   5
ATOM      5  C   LIG     1      -3.322   0.152  -0.589  0.00  0.00    +0.055 A 
ATOM      6  C   LIG     1      -2.047   0.346   0.012  0.00  0.00    +0.051 A 
ATOM      7  C   LIG     1      -1.989   0.874   1.325  0.00  0.00    +0.025 A 
ATOM      8  C   LIG     1      -3.161   1.183   2.035  0.00  0.00    +0.014 A 
ATOM      9  C   LIG     1      -4.433   0.992   1.452  0.00  0.00    +0.057 A 
ATOM     10  C   LIG     1      -4.488   0.502   0.126  0.00  0.00    +0.037 A 
BRANCH   6  11
ATOM     11  N   LIG     1      -0.864   0.089  -0.641  0.00  0.00    -0.324 N 
ATOM     12  C   LIG     1       0.124  -0.814  -0.091  0.00  0.00    +0.133 C 
ATOM     13  C   LIG     1       1.467  -0.060   0.079  0.00  0.00    +0.178 C 
ATOM     14  O   LIG     1       1.844   0.598  -1.151  0.00  0.00    -0.377 OA
ATOM     15  C   LIG     1       0.839   1.508  -1.650  0.00  0.00    +0.178 C 
ATOM     16  C   LIG     1      -0.512   0.778  -1.861  0.00  0.00    +0.133 C 
ENDBRANCH   6  11
BRANCH   9  17
ATOM     17  C   LIG     1      -5.700   1.286   2.183  0.00  0.00    +0.417 C 
ATOM     18  F   LIG     1      -6.495   0.166   2.223  0.00  0.00    -0.166 F 
ATOM     19  F   LIG     1      -6.386   2.288   1.542  0.00  0.00    -0.166 F 
ATOM     20  F   LIG     1      -5.524   1.688   3.487  0.00  0.00    -0.166 F 
ENDBRANCH   9  17
ENDBRANCH   2   5
BRANCH   1  21
ATOM     21  C   LIG     1      -3.324  -1.831  -3.772  0.00  0.00    +0.178 C 
BRANCH  21  22
ATOM     22  N   LIG     1      -2.732  -0.820  -4.685  0.00  0.00    -0.297 NA
ATOM     23  H   LIG     1      -2.352   0.039  -4.312  0.00  0.00    +0.123 HD
BRANCH  22  25
ATOM     24  C   LIG     1      -4.199  -1.121  -6.658  0.00  0.00    +0.035 C 
ATOM     25  C   LIG     1      -2.711  -1.098  -6.157  0.00  0.00    +0.065 C 
BRANCH  25  26
ATOM     26  C   LIG     1      -1.902  -2.342  -6.479  0.00  0.00    -0.022 A 
ATOM     27  C   LIG     1      -0.633  -2.541  -5.869  0.00  0.00    +0.051 A 
ATOM     28  C   LIG     1       0.160  -3.672  -6.148  0.00  0.00    +0.117 A 
ATOM     29  C   LIG     1      -0.311  -4.651  -7.038  0.00  0.00    +0.045 A 
ATOM     30  C   LIG     1      -1.560  -4.487  -7.656  0.00  0.00    +0.004 A 
ATOM     31  C   LIG     1      -2.338  -3.346  -7.386  0.00  0.00    +0.006 A 
BRANCH  28  32
ATOM     32  O   LIG     1       1.382  -3.816  -5.575  0.00  0.00    -0.507 OA
ATOM     33  H   LIG     1       1.291  -3.805  -4.620  0.00  0.00    +0.292 HD
ENDBRANCH  28  32
ENDBRANCH  25  26
BRANCH  25  34
ATOM     34  C   LIG     1      -2.019   0.137  -6.828  0.00  0.00    +0.182 C 
BRANCH  34  35
ATOM     35  O   LIG     1      -0.754   0.465  -6.254  0.00  0.00    -0.393 OA
ATOM     36  H   LIG     1      -0.823   0.447  -5.297  0.00  0.00    +0.209 HD
ENDBRANCH  34  35
ENDBRANCH  25  34
ENDBRANCH  22  25
ENDBRANCH  21  22
ENDBRANCH   1  21
TORSDOF 10
