REMARK    Small molecule (ligand)
REMARK    Compound: PV-001822277071_1_T1
REMARK    SMILES: Cc1c(cc(CNC(=O)OC(C)(C)C)n1C)C(=O)NNC(=S)NCCc1cccs1
REMARK    The ligand was originally not a salt, therefore no desalting was carried out.
REMARK    The tautomeric state was generated by cxcalc version 18.20.0 of ChemAxons JChem Suite.
REMARK    Protonation state was generated at pH 7.4 by cxcalc version 18.20.0 of ChemAxons JChem Suite.
REMARK    Generation of the 3D conformation was carried out by molconvert version 18.20.0 of ChemAxons JChem Suite.
REMARK    Generation of the the target format file (pdbqt) was carried out by Open Babel version 2.4.1.
REMARK    Created on Tue Nov 13 12:59:32 EST 2018
REMARK  16 active torsions:
REMARK  status: ('A' for Active; 'I' for Inactive)
REMARK    1  A    between atoms: _1  and  _2
REMARK    2  A    between atoms: _3  and  _17
REMARK    3  A    between atoms: _5  and  _6
REMARK    4  A    between atoms: _6  and  _7
REMARK    5  A    between atoms: _8  and  _10
REMARK    6  A    between atoms: _10  and  _11
REMARK    7  A    between atoms: _11  and  _12
REMARK    8  A    between atoms: _11  and  _13
REMARK    9  A    between atoms: _11  and  _14
REMARK   10  A    between atoms: _15  and  _16
REMARK   11  A    between atoms: _19  and  _20
REMARK   12  A    between atoms: _20  and  _21
REMARK   13  A    between atoms: _21  and  _23
REMARK   14  A    between atoms: _23  and  _24
REMARK   15  A    between atoms: _24  and  _25
REMARK   16  A    between atoms: _25  and  _26
REMARK                            x       y       z     vdW  Elec       q    Type
REMARK                         _______ _______ _______ _____ _____    ______ ____
ROOT
ATOM      1  C   LIG     1      -2.468  -2.226   8.454  0.00  0.00    +0.064 C 
ATOM      2  C   LIG     1      -1.393  -1.816   7.519  0.00  0.00    +0.028 A 
ATOM      3  N   LIG     1      -1.502  -0.881   6.535  0.00  0.00    -0.349 N 
ATOM      4  C   LIG     1      -2.708  -0.178   6.187  0.00  0.00    +0.149 C 
ATOM      5  C   LIG     1      -0.286  -0.724   5.958  0.00  0.00    +0.037 A 
ATOM      6  C   LIG     1       0.591  -1.642   6.525  0.00  0.00    +0.037 A 
ATOM      7  C   LIG     1      -0.083  -2.326   7.527  0.00  0.00    +0.059 A 
ENDROOT
BRANCH   7   8
ATOM      8  C   LIG     1       0.491  -3.315   8.367  0.00  0.00    +0.262 C 
ATOM      9  N   LIG     1       1.656  -3.937   8.037  0.00  0.00    -0.231 N 
ATOM     10  H   LIG     1       2.126  -3.682   7.180  0.00  0.00    +0.173 HD
ATOM     11  O   LIG     1      -0.086  -3.632   9.433  0.00  0.00    -0.269 OA
BRANCH   9  12
ATOM     12  N   LIG     1       2.208  -4.893   8.824  0.00  0.00    -0.246 N 
ATOM     13  H   LIG     1       1.661  -5.595   9.303  0.00  0.00    +0.172 HD
BRANCH  12  14
ATOM     14  C   LIG     1       3.574  -4.805   8.897  0.00  0.00    +0.147 C 
ATOM     15  S   LIG     1       4.483  -5.691   7.759  0.00  0.00    -0.017 S 
BRANCH  14  16
ATOM     16  N   LIG     1       4.107  -4.072   9.873  0.00  0.00    -0.325 N 
ATOM     17  H   LIG     1       3.537  -3.275  10.118  0.00  0.00    +0.148 HD
BRANCH  16  18
ATOM     18  C   LIG     1       5.344  -4.327  10.545  0.00  0.00    +0.108 C 
BRANCH  18  19
ATOM     19  C   LIG     1       5.857  -3.046  11.251  0.00  0.00    +0.061 C 
BRANCH  19  20
ATOM     20  C   LIG     1       6.881  -3.356  12.266  0.00  0.00    -0.009 A 
ATOM     21  S   LIG     1       8.528  -3.883  11.964  0.00  0.00    -0.102 S 
ATOM     22  C   LIG     1       8.973  -4.057  13.651  0.00  0.00    +0.045 A 
ATOM     23  C   LIG     1       7.856  -3.695  14.407  0.00  0.00    +0.008 A 
ATOM     24  C   LIG     1       6.730  -3.309  13.659  0.00  0.00    +0.011 A 
ENDBRANCH  19  20
ENDBRANCH  18  19
ENDBRANCH  16  18
ENDBRANCH  14  16
ENDBRANCH  12  14
ENDBRANCH   9  12
ENDBRANCH   7   8
BRANCH   5  25
ATOM     25  C   LIG     1       0.120   0.240   4.917  0.00  0.00    +0.161 C 
BRANCH  25  26
ATOM     26  N   LIG     1      -0.228  -0.269   3.634  0.00  0.00    -0.276 N 
ATOM     27  H   LIG     1      -0.758  -1.125   3.543  0.00  0.00    +0.152 HD
ATOM     28  C   LIG     1       0.111   0.333   2.470  0.00  0.00    +0.401 C 
ATOM     29  O   LIG     1       0.761   1.405   2.464  0.00  0.00    -0.226 OA
BRANCH  28  30
ATOM     30  O   LIG     1      -0.262  -0.276   1.306  0.00  0.00    -0.445 OA
BRANCH  30  31
ATOM     31  C   LIG     1       0.032   0.103  -0.056  0.00  0.00    +0.107 C 
ATOM     32  C   LIG     1      -0.669  -0.960  -0.948  0.00  0.00    +0.055 C 
ATOM     33  C   LIG     1      -0.545   1.513  -0.377  0.00  0.00    +0.055 C 
ATOM     34  C   LIG     1       1.570   0.057  -0.301  0.00  0.00    +0.055 C 
ENDBRANCH  30  31
ENDBRANCH  28  30
ENDBRANCH  25  26
ENDBRANCH   5  25
TORSDOF 11
