REMARK    Small molecule (ligand)
REMARK    Compound: PV-001964777836_2_T2
REMARK    SMILES: CC(C)N1C(CCNC(=O)NC[C@@H](CO)CC2=CC=CC(Br)=C2)N=NC1=S
REMARK    The ligand was originally not a salt, therefore no desalting was carried out.
REMARK    The tautomeric state was generated by cxcalc version 18.20.0 of ChemAxons JChem Suite.
REMARK    Protonation state was generated at pH 7.4 by cxcalc version 18.20.0 of ChemAxons JChem Suite.
REMARK    Generation of the 3D conformation was carried out by molconvert version 18.20.0 of ChemAxons JChem Suite.
REMARK    Generation of the the target format file (pdbqt) was carried out by Open Babel version 2.4.1.
REMARK    Created on Tue Nov 13 13:44:57 EST 2018
REMARK  12 active torsions:
REMARK  status: ('A' for Active; 'I' for Inactive)
REMARK    1  A    between atoms: _1  and  _2
REMARK    2  A    between atoms: _2  and  _3
REMARK    3  A    between atoms: _2  and  _4
REMARK    4  A    between atoms: _5  and  _6
REMARK    5  A    between atoms: _6  and  _7
REMARK    6  A    between atoms: _7  and  _8
REMARK    7  A    between atoms: _11  and  _12
REMARK    8  A    between atoms: _12  and  _13
REMARK    9  A    between atoms: _13  and  _14
REMARK   10  A    between atoms: _13  and  _16
REMARK   11  A    between atoms: _14  and  _15
REMARK   12  A    between atoms: _16  and  _17
REMARK                            x       y       z     vdW  Elec       q    Type
REMARK                         _______ _______ _______ _____ _____    ______ ____
ROOT
ATOM      1  N   LIG     1       4.939  -3.358   0.363  0.00  0.00    -0.299 N 
ATOM      2  H   LIG     1       4.947  -2.656  -0.363  0.00  0.00    +0.150 HD
ATOM      3  C   LIG     1       3.708  -3.870   0.613  0.00  0.00    +0.300 C 
ATOM      4  N   LIG     1       2.700  -3.373  -0.144  0.00  0.00    -0.299 N 
ATOM      5  H   LIG     1       2.981  -2.610  -0.743  0.00  0.00    +0.150 HD
ATOM      6  O   LIG     1       3.513  -4.759   1.477  0.00  0.00    -0.253 OA
ENDROOT
BRANCH   1   7
ATOM      7  C   LIG     1       6.159  -3.717   1.012  0.00  0.00    +0.109 C 
BRANCH   7   8
ATOM      8  C   LIG     1       7.326  -3.690  -0.010  0.00  0.00    +0.067 C 
BRANCH   8  14
ATOM      9  N   LIG     1       9.817  -3.926  -0.303  0.00  0.00    -0.284 N 
ATOM     10  C   LIG     1      10.608  -3.015   0.271  0.00  0.00    +0.179 C 
ATOM     11  S   LIG     1      12.042  -2.271  -0.270  0.00  0.00    -0.015 S 
ATOM     12  N   LIG     1      10.141  -2.692   1.409  0.00  0.00    -0.098 NA
ATOM     13  N   LIG     1       9.089  -3.271   1.628  0.00  0.00    -0.173 NA
ATOM     14  C   LIG     1       8.704  -4.100   0.588  0.00  0.00    +0.215 C 
BRANCH   9  16
ATOM     15  C   LIG     1      10.400  -6.162  -1.192  0.00  0.00    +0.028 C 
ATOM     16  C   LIG     1       9.987  -4.703  -1.529  0.00  0.00    +0.071 C 
ATOM     17  C   LIG     1      10.929  -4.122  -2.623  0.00  0.00    +0.028 C 
ENDBRANCH   9  16
ENDBRANCH   8  14
ENDBRANCH   7   8
ENDBRANCH   1   7
BRANCH   4  18
ATOM     18  C   LIG     1       1.343  -3.820  -0.157  0.00  0.00    +0.111 C 
BRANCH  18  19
ATOM     19  C   LIG     1       0.365  -2.637  -0.461  0.00  0.00    +0.036 C 
BRANCH  19  20
ATOM     20  C   LIG     1       0.293  -1.665   0.765  0.00  0.00    +0.042 C 
BRANCH  20  21
ATOM     21  C   LIG     1      -0.539  -0.446   0.560  0.00  0.00    -0.046 A 
ATOM     22  C   LIG     1      -0.005   0.690  -0.095  0.00  0.00    +0.019 A 
ATOM     23  C   LIG     1      -0.782   1.851  -0.267  0.00  0.00    +0.018 A 
ATOM     24 BR   LIG     1      -0.051   3.341  -1.109  0.00  0.00    -0.050 Br
ATOM     25  C   LIG     1      -2.106   1.889   0.206  0.00  0.00    +0.015 A 
ATOM     26  C   LIG     1      -2.648   0.770   0.861  0.00  0.00    +0.001 A 
ATOM     27  C   LIG     1      -1.871  -0.390   1.036  0.00  0.00    +0.004 A 
ENDBRANCH  20  21
ENDBRANCH  19  20
BRANCH  19  28
ATOM     28  C   LIG     1      -1.038  -3.162  -0.893  0.00  0.00    +0.161 C 
BRANCH  28  29
ATOM     29  O   LIG     1      -0.960  -3.997  -2.046  0.00  0.00    -0.395 OA
ATOM     30  H   LIG     1      -0.978  -4.918  -1.776  0.00  0.00    +0.209 HD
ENDBRANCH  28  29
ENDBRANCH  19  28
ENDBRANCH  18  19
ENDBRANCH   4  18
TORSDOF 10
