REMARK    Small molecule (ligand)
REMARK    Compound: PV-001950801202_4_T1
REMARK    SMILES: COc1ccc(C[C@@H](CO)CNC(=O)Nc2ccc(cc2)N2CCN3CCC[C@H]3C2)cc1O
REMARK    The ligand was originally not a salt, therefore no desalting was carried out.
REMARK    The tautomeric state was generated by cxcalc version 18.20.0 of ChemAxons JChem Suite.
REMARK    Protonation state was generated at pH 7.4 by cxcalc version 18.20.0 of ChemAxons JChem Suite.
REMARK    Generation of the 3D conformation was carried out by molconvert version 18.20.0 of ChemAxons JChem Suite.
REMARK    Generation of the the target format file (pdbqt) was carried out by Open Babel version 2.4.1.
REMARK    Created on Tue Nov 13 13:45:16 EST 2018
REMARK  11 active torsions:
REMARK  status: ('A' for Active; 'I' for Inactive)
REMARK    1  A    between atoms: _1  and  _2
REMARK    2  A    between atoms: _2  and  _3
REMARK    3  A    between atoms: _6  and  _7
REMARK    4  A    between atoms: _7  and  _8
REMARK    5  A    between atoms: _8  and  _9
REMARK    6  A    between atoms: _8  and  _11
REMARK    7  A    between atoms: _9  and  _10
REMARK    8  A    between atoms: _11  and  _12
REMARK    9  A    between atoms: _15  and  _16
REMARK   10  A    between atoms: _19  and  _22
REMARK   11  A    between atoms: _32  and  _33
REMARK                            x       y       z     vdW  Elec       q    Type
REMARK                         _______ _______ _______ _____ _____    ______ ____
ROOT
ATOM      1  N   LIG     1      -0.088   5.016   4.465  0.00  0.00    -0.299 N 
ATOM      2  H   LIG     1      -1.075   5.227   4.430  0.00  0.00    +0.150 HD
ATOM      3  C   LIG     1       0.711   5.997   3.972  0.00  0.00    +0.304 C 
ATOM      4  N   LIG     1       0.080   7.118   3.521  0.00  0.00    -0.269 N 
ATOM      5  H   LIG     1      -0.928   7.078   3.571  0.00  0.00    +0.156 HD
ATOM      6  O   LIG     1       1.955   5.849   3.975  0.00  0.00    -0.253 OA
ENDROOT
BRANCH   4   7
ATOM      7  C   LIG     1       0.593   8.284   3.012  0.00  0.00    +0.035 A 
ATOM      8  C   LIG     1       1.936   8.503   2.618  0.00  0.00    +0.025 A 
ATOM      9  C   LIG     1       2.361   9.766   2.172  0.00  0.00    +0.025 A 
ATOM     10  C   LIG     1       1.454  10.844   2.078  0.00  0.00    +0.030 A 
ATOM     11  C   LIG     1       0.101  10.614   2.412  0.00  0.00    +0.025 A 
ATOM     12  C   LIG     1      -0.320   9.354   2.874  0.00  0.00    +0.025 A 
BRANCH  10  13
ATOM     13  N   LIG     1       1.887  12.085   1.673  0.00  0.00    -0.327 N 
ATOM     14  C   LIG     1       2.570  12.265   0.415  0.00  0.00    +0.124 C 
ATOM     15  C   LIG     1       1.814  13.316  -0.455  0.00  0.00    +0.074 C 
ATOM     16  C   LIG     1       2.668  13.878  -1.611  0.00  0.00    +0.022 C 
ATOM     17  C   LIG     1       3.436  15.043  -0.967  0.00  0.00    +0.017 C 
ATOM     18  C   LIG     1       2.488  15.559   0.136  0.00  0.00    +0.085 C 
ATOM     19  N   LIG     1       1.428  14.535   0.302  0.00  0.00    -0.296 NA
ATOM     20  C   LIG     1       0.864  14.307   1.665  0.00  0.00    +0.103 C 
ATOM     21  C   LIG     1       1.676  13.267   2.476  0.00  0.00    +0.120 C 
ENDBRANCH  10  13
ENDBRANCH   4   7
BRANCH   1  22
ATOM     22  C   LIG     1       0.361   3.769   5.001  0.00  0.00    +0.111 C 
BRANCH  22  23
ATOM     23  C   LIG     1      -0.828   2.896   5.511  0.00  0.00    +0.036 C 
BRANCH  23  24
ATOM     24  C   LIG     1      -1.869   2.538   4.393  0.00  0.00    +0.042 C 
BRANCH  24  28
ATOM     25  C   LIG     1      -0.378   0.467   0.886  0.00  0.00    +0.161 A 
ATOM     26  C   LIG     1      -0.575  -0.237   2.092  0.00  0.00    +0.159 A 
ATOM     27  C   LIG     1      -1.052   0.441   3.231  0.00  0.00    +0.052 A 
ATOM     28  C   LIG     1      -1.344   1.825   3.191  0.00  0.00    -0.043 A 
ATOM     29  C   LIG     1      -1.161   2.513   1.968  0.00  0.00    +0.007 A 
ATOM     30  C   LIG     1      -0.686   1.840   0.828  0.00  0.00    +0.049 A 
BRANCH  25  32
ATOM     31  C   LIG     1       1.501  -0.092  -0.395  0.00  0.00    +0.277 C 
ATOM     32  O   LIG     1       0.074  -0.180  -0.234  0.00  0.00    -0.491 OA
ENDBRANCH  25  32
BRANCH  26  33
ATOM     33  O   LIG     1      -0.309  -1.568   2.143  0.00  0.00    -0.503 OA
ATOM     34  H   LIG     1      -0.253  -1.848   3.060  0.00  0.00    +0.292 HD
ENDBRANCH  26  33
ENDBRANCH  24  28
ENDBRANCH  23  24
BRANCH  23  35
ATOM     35  C   LIG     1      -0.309   1.666   6.315  0.00  0.00    +0.161 C 
BRANCH  35  36
ATOM     36  O   LIG     1      -1.384   0.897   6.848  0.00  0.00    -0.395 OA
ATOM     37  H   LIG     1      -1.350   0.922   7.807  0.00  0.00    +0.209 HD
ENDBRANCH  35  36
ENDBRANCH  23  35
ENDBRANCH  22  23
ENDBRANCH   1  22
TORSDOF 10
