REMARK    Small molecule (ligand)
REMARK    Compound: PV-001869641177_1_T2
REMARK    SMILES: CC(C)OC1=CC=C(NC(=S)NNC(=O)CCN2C(S)=NC3=CC=CC=C3C2=O)C=C1
REMARK    The ligand was originally not a salt, therefore no desalting was carried out.
REMARK    The tautomeric state was generated by cxcalc version 18.20.0 of ChemAxons JChem Suite.
REMARK    Protonation state was generated at pH 7.4 by cxcalc version 18.20.0 of ChemAxons JChem Suite.
REMARK    Generation of the 3D conformation was carried out by molconvert version 18.20.0 of ChemAxons JChem Suite.
REMARK    Generation of the the target format file (pdbqt) was carried out by Open Babel version 2.4.1.
REMARK    Created on Tue Nov 13 12:59:31 EST 2018
REMARK  12 active torsions:
REMARK  status: ('A' for Active; 'I' for Inactive)
REMARK    1  A    between atoms: _1  and  _2
REMARK    2  A    between atoms: _2  and  _3
REMARK    3  A    between atoms: _2  and  _4
REMARK    4  A    between atoms: _4  and  _5
REMARK    5  A    between atoms: _8  and  _9
REMARK    6  A    between atoms: _9  and  _10
REMARK    7  A    between atoms: _10  and  _12
REMARK    8  A    between atoms: _12  and  _13
REMARK    9  A    between atoms: _14  and  _16
REMARK   10  A    between atoms: _16  and  _17
REMARK   11  A    between atoms: _17  and  _18
REMARK   12  A    between atoms: _19  and  _20
REMARK                            x       y       z     vdW  Elec       q    Type
REMARK                         _______ _______ _______ _____ _____    ______ ____
ROOT
ATOM      1  N   LIG     1       3.256   1.299   1.940  0.00  0.00    -0.235 N 
ATOM      2  H   LIG     1       4.017   0.845   2.424  0.00  0.00    +0.173 HD
ATOM      3  C   LIG     1       2.120   0.598   1.730  0.00  0.00    +0.231 C 
ATOM      4  O   LIG     1       1.135   1.123   1.159  0.00  0.00    -0.274 OA
ENDROOT
BRANCH   1   5
ATOM      5  N   LIG     1       3.430   2.574   1.537  0.00  0.00    -0.246 N 
ATOM      6  H   LIG     1       2.754   3.316   1.651  0.00  0.00    +0.172 HD
BRANCH   5   7
ATOM      7  C   LIG     1       4.667   2.685   0.955  0.00  0.00    +0.151 C 
ATOM      8  S   LIG     1       6.007   2.924   1.977  0.00  0.00    -0.017 S 
BRANCH   7   9
ATOM      9  N   LIG     1       4.914   2.555  -0.347  0.00  0.00    -0.296 N 
ATOM     10  H   LIG     1       5.885   2.359  -0.546  0.00  0.00    +0.154 HD
BRANCH   9  14
ATOM     11  C   LIG     1       2.609   2.963  -3.837  0.00  0.00    +0.121 A 
ATOM     12  C   LIG     1       3.906   2.415  -3.865  0.00  0.00    +0.047 A 
ATOM     13  C   LIG     1       4.630   2.264  -2.669  0.00  0.00    +0.027 A 
ATOM     14  C   LIG     1       4.076   2.643  -1.424  0.00  0.00    +0.033 A 
ATOM     15  C   LIG     1       2.743   3.125  -1.403  0.00  0.00    +0.027 A 
ATOM     16  C   LIG     1       2.015   3.272  -2.599  0.00  0.00    +0.047 A 
BRANCH  11  17
ATOM     17  O   LIG     1       1.916   3.210  -4.992  0.00  0.00    -0.489 OA
BRANCH  17  19
ATOM     18  C   LIG     1       1.549   4.418  -7.046  0.00  0.00    +0.051 C 
ATOM     19  C   LIG     1       2.349   4.386  -5.722  0.00  0.00    +0.167 C 
ATOM     20  C   LIG     1       2.162   5.712  -4.933  0.00  0.00    +0.051 C 
ENDBRANCH  17  19
ENDBRANCH  11  17
ENDBRANCH   9  14
ENDBRANCH   7   9
ENDBRANCH   5   7
ENDBRANCH   1   5
BRANCH   3  21
ATOM     21  C   LIG     1       2.060  -0.808   2.180  0.00  0.00    +0.119 C 
BRANCH  21  22
ATOM     22  C   LIG     1       2.322  -0.969   3.705  0.00  0.00    +0.136 C 
BRANCH  22  23
ATOM     23  N   LIG     1       2.247  -2.354   4.155  0.00  0.00    -0.287 N 
ATOM     24  C   LIG     1       3.315  -3.203   3.933  0.00  0.00    +0.262 A 
ATOM     25  O   LIG     1       4.318  -2.816   3.282  0.00  0.00    -0.267 OA
ATOM     26  C   LIG     1       3.328  -4.525   4.444  0.00  0.00    +0.065 A 
ATOM     27  C   LIG     1       4.419  -5.419   4.312  0.00  0.00    +0.015 A 
ATOM     28  C   LIG     1       4.365  -6.703   4.889  0.00  0.00    +0.001 A 
ATOM     29  C   LIG     1       3.216  -7.116   5.588  0.00  0.00    +0.002 A 
ATOM     30  C   LIG     1       2.118  -6.247   5.712  0.00  0.00    +0.028 A 
ATOM     31  C   LIG     1       2.176  -4.958   5.147  0.00  0.00    +0.079 A 
ATOM     32  N   LIG     1       1.130  -4.116   5.293  0.00  0.00    -0.223 NA
ATOM     33  C   LIG     1       1.145  -2.846   4.823  0.00  0.00    +0.169 A 
BRANCH  33  34
ATOM     34  S   LIG     1      -0.329  -1.976   5.165  0.00  0.00    -0.105 S 
ATOM     35  H   LIG     1      -0.491  -1.881   6.472  0.00  0.00    +0.110 HD
ENDBRANCH  33  34
ENDBRANCH  22  23
ENDBRANCH  21  22
ENDBRANCH   3  21
TORSDOF 10
