REMARK    Small molecule (ligand)
REMARK    Compound: PV-001963676970_1_T2
REMARK    SMILES: CCN1C(CCNC(=O)NNC2=CC=CC(OC(F)F)=C2Br)N=NC1=S
REMARK    The ligand was originally not a salt, therefore no desalting was carried out.
REMARK    The tautomeric state was generated by cxcalc version 18.20.0 of ChemAxons JChem Suite.
REMARK    Protonation state was generated at pH 7.4 by cxcalc version 18.20.0 of ChemAxons JChem Suite.
REMARK    Generation of the 3D conformation was carried out by molconvert version 18.20.0 of ChemAxons JChem Suite.
REMARK    Generation of the the target format file (pdbqt) was carried out by Open Babel version 2.4.1.
REMARK    Created on Tue Nov 13 13:45:09 EST 2018
REMARK  9 active torsions:
REMARK  status: ('A' for Active; 'I' for Inactive)
REMARK    1  A    between atoms: _1  and  _2
REMARK    2  A    between atoms: _2  and  _3
REMARK    3  A    between atoms: _4  and  _5
REMARK    4  A    between atoms: _5  and  _6
REMARK    5  A    between atoms: _6  and  _7
REMARK    6  A    between atoms: _10  and  _11
REMARK    7  A    between atoms: _11  and  _12
REMARK    8  A    between atoms: _16  and  _17
REMARK    9  A    between atoms: _17  and  _18
REMARK                            x       y       z     vdW  Elec       q    Type
REMARK                         _______ _______ _______ _____ _____    ______ ____
ROOT
ATOM      1  N   LIG     1      -2.233  -2.579   0.494  0.00  0.00    -0.298 N 
ATOM      2  H   LIG     1      -2.068  -2.670   1.486  0.00  0.00    +0.150 HD
ATOM      3  C   LIG     1      -1.281  -1.886  -0.181  0.00  0.00    +0.316 C 
ATOM      4  N   LIG     1      -0.268  -1.341   0.532  0.00  0.00    -0.220 N 
ATOM      5  H   LIG     1      -0.253  -1.468   1.534  0.00  0.00    +0.174 HD
ATOM      6  O   LIG     1      -1.343  -1.735  -1.425  0.00  0.00    -0.251 OA
ENDROOT
BRANCH   4   7
ATOM      7  N   LIG     1       0.726  -0.631  -0.057  0.00  0.00    -0.262 N 
ATOM      8  H   LIG     1       0.999  -0.765  -1.020  0.00  0.00    +0.170 HD
BRANCH   7   9
ATOM      9  C   LIG     1       1.296   0.285   0.846  0.00  0.00    +0.062 A 
ATOM     10  C   LIG     1       0.735   1.564   1.086  0.00  0.00    +0.082 A 
ATOM     11 BR   LIG     1      -0.861   2.064   0.262  0.00  0.00    -0.045 Br
ATOM     12  C   LIG     1       1.396   2.481   1.937  0.00  0.00    +0.143 A 
ATOM     13  C   LIG     1       2.598   2.100   2.568  0.00  0.00    +0.047 A 
ATOM     14  C   LIG     1       3.145   0.826   2.348  0.00  0.00    +0.005 A 
ATOM     15  C   LIG     1       2.502  -0.073   1.480  0.00  0.00    +0.026 A 
BRANCH  12  16
ATOM     16  O   LIG     1       0.929   3.760   2.101  0.00  0.00    -0.433 OA
BRANCH  16  17
ATOM     17  C   LIG     1       0.094   3.962   3.255  0.00  0.00    +0.541 C 
ATOM     18  F   LIG     1      -0.337   5.264   3.224  0.00  0.00    -0.166 F 
ATOM     19  F   LIG     1       0.767   3.781   4.440  0.00  0.00    -0.166 F 
ENDBRANCH  16  17
ENDBRANCH  12  16
ENDBRANCH   7   9
ENDBRANCH   4   7
BRANCH   1  20
ATOM     20  C   LIG     1      -3.397  -3.155  -0.102  0.00  0.00    +0.109 C 
BRANCH  20  21
ATOM     21  C   LIG     1      -4.421  -3.596   0.983  0.00  0.00    +0.067 C 
BRANCH  21  27
ATOM     22  N   LIG     1      -6.874  -3.910   1.488  0.00  0.00    -0.287 N 
ATOM     23  C   LIG     1      -7.604  -2.835   1.749  0.00  0.00    +0.179 C 
ATOM     24  S   LIG     1      -8.886  -2.658   2.857  0.00  0.00    -0.015 S 
ATOM     25  N   LIG     1      -7.224  -1.863   1.023  0.00  0.00    -0.098 NA
ATOM     26  N   LIG     1      -6.288  -2.200   0.315  0.00  0.00    -0.173 NA
ATOM     27  C   LIG     1      -5.902  -3.518   0.511  0.00  0.00    +0.215 C 
BRANCH  22  29
ATOM     28  C   LIG     1      -7.153  -6.351   0.985  0.00  0.00    +0.024 C 
ATOM     29  C   LIG     1      -7.034  -5.234   2.047  0.00  0.00    +0.105 C 
ENDBRANCH  22  29
ENDBRANCH  21  27
ENDBRANCH  20  21
ENDBRANCH   1  20
TORSDOF 8
