REMARK    Small molecule (ligand)
REMARK    Compound: PV-001822274010_1_T2
REMARK    SMILES: ClC1=CC=C(C=C1)C1N=NC(=S)N1CC(=O)NNC(=S)NCCC1=CC=CS1
REMARK    The ligand was originally not a salt, therefore no desalting was carried out.
REMARK    The tautomeric state was generated by cxcalc version 18.20.0 of ChemAxons JChem Suite.
REMARK    Protonation state was generated at pH 7.4 by cxcalc version 18.20.0 of ChemAxons JChem Suite.
REMARK    Generation of the 3D conformation was carried out by molconvert version 18.20.0 of ChemAxons JChem Suite.
REMARK    Generation of the the target format file (pdbqt) was carried out by Open Babel version 2.4.1.
REMARK    Created on Tue Nov 13 12:59:35 EST 2018
REMARK  9 active torsions:
REMARK  status: ('A' for Active; 'I' for Inactive)
REMARK    1  A    between atoms: _5  and  _8
REMARK    2  A    between atoms: _13  and  _14
REMARK    3  A    between atoms: _14  and  _15
REMARK    4  A    between atoms: _17  and  _18
REMARK    5  A    between atoms: _18  and  _19
REMARK    6  A    between atoms: _19  and  _21
REMARK    7  A    between atoms: _21  and  _22
REMARK    8  A    between atoms: _22  and  _23
REMARK    9  A    between atoms: _23  and  _24
REMARK                            x       y       z     vdW  Elec       q    Type
REMARK                         _______ _______ _______ _____ _____    ______ ____
ROOT
ATOM      1  C   LIG     1       1.520   3.872  -3.614  0.00  0.00    +0.246 C 
ATOM      2  N   LIG     1       2.018   4.488  -4.715  0.00  0.00    -0.234 N 
ATOM      3  H   LIG     1       1.912   5.487  -4.814  0.00  0.00    +0.173 HD
ATOM      4  O   LIG     1       1.655   2.634  -3.473  0.00  0.00    -0.273 OA
ENDROOT
BRANCH   2   5
ATOM      5  N   LIG     1       2.656   3.793  -5.686  0.00  0.00    -0.246 N 
ATOM      6  H   LIG     1       2.290   2.928  -6.057  0.00  0.00    +0.172 HD
BRANCH   5   7
ATOM      7  C   LIG     1       3.827   4.359  -6.115  0.00  0.00    +0.147 C 
ATOM      8  S   LIG     1       5.170   4.352  -5.063  0.00  0.00    -0.017 S 
BRANCH   7   9
ATOM      9  N   LIG     1       3.861   4.798  -7.373  0.00  0.00    -0.325 N 
ATOM     10  H   LIG     1       2.941   4.966  -7.755  0.00  0.00    +0.148 HD
BRANCH   9  11
ATOM     11  C   LIG     1       5.030   5.030  -8.160  0.00  0.00    +0.108 C 
BRANCH  11  12
ATOM     12  C   LIG     1       4.639   5.330  -9.629  0.00  0.00    +0.061 C 
BRANCH  12  13
ATOM     13  C   LIG     1       5.812   5.328 -10.525  0.00  0.00    -0.009 A 
ATOM     14  S   LIG     1       6.344   3.992 -11.534  0.00  0.00    -0.102 S 
ATOM     15  C   LIG     1       7.768   4.795 -12.164  0.00  0.00    +0.045 A 
ATOM     16  C   LIG     1       7.799   6.069 -11.591  0.00  0.00    +0.008 A 
ATOM     17  C   LIG     1       6.744   6.359 -10.705  0.00  0.00    +0.011 A 
ENDBRANCH  12  13
ENDBRANCH  11  12
ENDBRANCH   9  11
ENDBRANCH   7   9
ENDBRANCH   5   7
ENDBRANCH   2   5
BRANCH   1  18
ATOM     18  C   LIG     1       0.755   4.630  -2.601  0.00  0.00    +0.206 C 
BRANCH  18  20
ATOM     19  C   LIG     1       2.059   3.627  -0.620  0.00  0.00    +0.245 C 
ATOM     20  N   LIG     1       1.348   4.677  -1.283  0.00  0.00    -0.274 N 
ATOM     21  C   LIG     1       1.342   5.709  -0.449  0.00  0.00    +0.179 C 
ATOM     22  S   LIG     1       0.608   7.233  -0.648  0.00  0.00    -0.015 S 
ATOM     23  N   LIG     1       1.981   5.414   0.612  0.00  0.00    -0.098 NA
ATOM     24  N   LIG     1       2.392   4.265   0.561  0.00  0.00    -0.168 NA
BRANCH  19  29
ATOM     25 CL   LIG     1      -0.783  -1.564   0.516  0.00  0.00    -0.084 Cl
ATOM     26  C   LIG     1      -0.001  -0.099   0.190  0.00  0.00    +0.041 A 
ATOM     27  C   LIG     1      -0.725   1.109   0.190  0.00  0.00    +0.020 A 
ATOM     28  C   LIG     1      -0.065   2.328  -0.059  0.00  0.00    +0.009 A 
ATOM     29  C   LIG     1       1.322   2.358  -0.341  0.00  0.00    -0.004 A 
ATOM     30  C   LIG     1       2.032   1.133  -0.337  0.00  0.00    +0.009 A 
ATOM     31  C   LIG     1       1.380  -0.084  -0.076  0.00  0.00    +0.020 A 
ENDBRANCH  19  29
ENDBRANCH  18  20
ENDBRANCH   1  18
TORSDOF 9
