REMARK    Small molecule (ligand)
REMARK    Compound: Z1021687708_1_T1
REMARK    SMILES: COc1ccc(OC)c(NC(=S)NCCNC(=S)Nc2cc(OC)ccc2OC)c1
REMARK    The ligand was originally not a salt, therefore no desalting was carried out.
REMARK    The tautomeric state was generated by cxcalc version 18.20.0 of ChemAxons JChem Suite.
REMARK    Protonation state was generated at pH 7.4 by cxcalc version 18.20.0 of ChemAxons JChem Suite.
REMARK    Generation of the 3D conformation was carried out by molconvert version 18.20.0 of ChemAxons JChem Suite.
REMARK    Generation of the the target format file (pdbqt) was carried out by Open Babel version 2.4.1.
REMARK    Created on Tue Nov 13 13:45:51 EST 2018
REMARK  17 active torsions:
REMARK  status: ('A' for Active; 'I' for Inactive)
REMARK    1  A    between atoms: _1  and  _2
REMARK    2  A    between atoms: _2  and  _3
REMARK    3  A    between atoms: _6  and  _7
REMARK    4  A    between atoms: _7  and  _8
REMARK    5  A    between atoms: _9  and  _10
REMARK    6  A    between atoms: _10  and  _11
REMARK    7  A    between atoms: _11  and  _13
REMARK    8  A    between atoms: _13  and  _14
REMARK    9  A    between atoms: _14  and  _15
REMARK   10  A    between atoms: _15  and  _16
REMARK   11  A    between atoms: _16  and  _17
REMARK   12  A    between atoms: _17  and  _19
REMARK   13  A    between atoms: _19  and  _20
REMARK   14  A    between atoms: _22  and  _23
REMARK   15  A    between atoms: _23  and  _24
REMARK   16  A    between atoms: _27  and  _28
REMARK   17  A    between atoms: _28  and  _29
REMARK                            x       y       z     vdW  Elec       q    Type
REMARK                         _______ _______ _______ _____ _____    ______ ____
ROOT
ATOM      1  C   LIG     1      -0.884   6.702   1.615  0.00  0.00    +0.122 C 
ENDROOT
BRANCH   1   2
ATOM      2  N   LIG     1      -1.134   5.756   0.566  0.00  0.00    -0.325 N 
ATOM      3  H   LIG     1      -1.094   6.045  -0.401  0.00  0.00    +0.148 HD
BRANCH   2   4
ATOM      4  C   LIG     1      -1.431   4.462   0.682  0.00  0.00    +0.135 C 
ATOM      5  S   LIG     1      -2.210   3.803  -0.684  0.00  0.00    -0.019 S 
BRANCH   4   6
ATOM      6  N   LIG     1      -1.236   3.768   1.810  0.00  0.00    -0.294 N 
ATOM      7  H   LIG     1      -1.231   4.334   2.646  0.00  0.00    +0.154 HD
BRANCH   6  10
ATOM      8  C   LIG     1      -0.280   0.209   1.212  0.00  0.00    +0.122 A 
ATOM      9  C   LIG     1      -0.491   1.583   0.979  0.00  0.00    +0.072 A 
ATOM     10  C   LIG     1      -1.047   2.421   1.975  0.00  0.00    +0.078 A 
ATOM     11  C   LIG     1      -1.373   1.857   3.234  0.00  0.00    +0.141 A 
ATOM     12  C   LIG     1      -1.142   0.485   3.476  0.00  0.00    +0.051 A 
ATOM     13  C   LIG     1      -0.610  -0.335   2.467  0.00  0.00    +0.049 A 
BRANCH   8  15
ATOM     14  C   LIG     1       1.635  -0.513   0.045  0.00  0.00    +0.277 C 
ATOM     15  O   LIG     1       0.210  -0.602   0.223  0.00  0.00    -0.495 OA
ENDBRANCH   8  15
BRANCH  11  16
ATOM     16  O   LIG     1      -1.872   2.637   4.246  0.00  0.00    -0.493 OA
ATOM     17  C   LIG     1      -3.308   2.599   4.345  0.00  0.00    +0.277 C 
ENDBRANCH  11  16
ENDBRANCH   6  10
ENDBRANCH   4   6
ENDBRANCH   2   4
ENDBRANCH   1   2
BRANCH   1  18
ATOM     18  C   LIG     1       0.374   7.578   1.354  0.00  0.00    +0.122 C 
BRANCH  18  19
ATOM     19  N   LIG     1       0.192   8.892   1.897  0.00  0.00    -0.325 N 
ATOM     20  H   LIG     1      -0.731   9.222   2.138  0.00  0.00    +0.148 HD
BRANCH  19  21
ATOM     21  C   LIG     1       1.125   9.807   2.149  0.00  0.00    +0.135 C 
ATOM     22  S   LIG     1       0.511  11.376   2.415  0.00  0.00    -0.019 S 
BRANCH  21  23
ATOM     23  N   LIG     1       2.438   9.537   2.123  0.00  0.00    -0.294 N 
ATOM     24  H   LIG     1       2.691   8.739   1.558  0.00  0.00    +0.154 HD
BRANCH  23  25
ATOM     25  C   LIG     1       3.456  10.203   2.760  0.00  0.00    +0.078 A 
ATOM     26  C   LIG     1       4.735  10.239   2.151  0.00  0.00    +0.141 A 
ATOM     27  C   LIG     1       5.796  10.938   2.767  0.00  0.00    +0.051 A 
ATOM     28  C   LIG     1       5.601  11.585   3.999  0.00  0.00    +0.049 A 
ATOM     29  C   LIG     1       4.348  11.528   4.637  0.00  0.00    +0.122 A 
ATOM     30  C   LIG     1       3.292  10.823   4.025  0.00  0.00    +0.072 A 
BRANCH  26  31
ATOM     31  O   LIG     1       4.955   9.632   0.941  0.00  0.00    -0.493 OA
ATOM     32  C   LIG     1       5.479   8.297   1.067  0.00  0.00    +0.277 C 
ENDBRANCH  26  31
BRANCH  29  33
ATOM     33  O   LIG     1       4.182  12.116   5.864  0.00  0.00    -0.495 OA
ATOM     34  C   LIG     1       3.555  13.410   5.806  0.00  0.00    +0.277 C 
ENDBRANCH  29  33
ENDBRANCH  23  25
ENDBRANCH  21  23
ENDBRANCH  19  21
ENDBRANCH  18  19
ENDBRANCH   1  18
TORSDOF 13
