REMARK    Small molecule (ligand)
REMARK    Compound: Z1074296238_1_T1
REMARK    SMILES: O=C(Cc1csc(NC(=O)Cc2cccs2)n1)NNC(=S)Nc1cccc(c1)C#C
REMARK    The ligand was originally not a salt, therefore no desalting was carried out.
REMARK    The tautomeric state was generated by cxcalc version 18.20.0 of ChemAxons JChem Suite.
REMARK    Protonation state was generated at pH 7.4 by cxcalc version 18.20.0 of ChemAxons JChem Suite.
REMARK    Generation of the 3D conformation was carried out by molconvert version 18.20.0 of ChemAxons JChem Suite.
REMARK    Generation of the the target format file (pdbqt) was carried out by Open Babel version 2.4.1.
REMARK    Created on Tue Nov 13 12:59:37 EST 2018
REMARK  9 active torsions:
REMARK  status: ('A' for Active; 'I' for Inactive)
REMARK    1  A    between atoms: _2  and  _3
REMARK    2  A    between atoms: _3  and  _4
REMARK    3  A    between atoms: _9  and  _11
REMARK    4  A    between atoms: _11  and  _12
REMARK    5  A    between atoms: _18  and  _19
REMARK    6  A    between atoms: _19  and  _20
REMARK    7  A    between atoms: _20  and  _22
REMARK    8  A    between atoms: _22  and  _23
REMARK    9  A    between atoms: _27  and  _29
REMARK                            x       y       z     vdW  Elec       q    Type
REMARK                         _______ _______ _______ _____ _____    ______ ____
ROOT
ATOM      1  O   LIG     1      -2.860  -0.352   2.499  0.00  0.00    -0.274 OA
ATOM      2  C   LIG     1      -2.200  -1.262   1.943  0.00  0.00    +0.235 C 
ATOM      3  N   LIG     1      -2.811  -2.397   1.526  0.00  0.00    -0.235 N 
ATOM      4  H   LIG     1      -2.270  -3.078   1.013  0.00  0.00    +0.173 HD
ENDROOT
BRANCH   3   5
ATOM      5  N   LIG     1      -4.116  -2.659   1.766  0.00  0.00    -0.246 N 
ATOM      6  H   LIG     1      -4.849  -1.964   1.735  0.00  0.00    +0.172 HD
BRANCH   5   7
ATOM      7  C   LIG     1      -4.286  -3.997   2.055  0.00  0.00    +0.151 C 
ATOM      8  S   LIG     1      -3.583  -4.666   3.457  0.00  0.00    -0.017 S 
BRANCH   7   9
ATOM      9  N   LIG     1      -4.957  -4.823   1.257  0.00  0.00    -0.296 N 
ATOM     10  H   LIG     1      -4.752  -5.803   1.387  0.00  0.00    +0.154 HD
BRANCH   9  11
ATOM     11  C   LIG     1      -5.873  -4.478   0.305  0.00  0.00    +0.034 A 
ATOM     12  C   LIG     1      -5.853  -5.177  -0.921  0.00  0.00    +0.040 A 
ATOM     13  C   LIG     1      -6.779  -4.876  -1.944  0.00  0.00    +0.026 A 
ATOM     14  C   LIG     1      -7.755  -3.880  -1.722  0.00  0.00    +0.017 A 
ATOM     15  C   LIG     1      -7.790  -3.186  -0.500  0.00  0.00    +0.003 A 
ATOM     16  C   LIG     1      -6.855  -3.481   0.506  0.00  0.00    +0.023 A 
BRANCH  13  17
ATOM     17  C   LIG     1      -6.721  -5.507  -3.086  0.00  0.00    -0.070 C 
ATOM     18  C   LIG     1      -6.649  -6.086  -4.128  0.00  0.00    +0.009 C 
ENDBRANCH  13  17
ENDBRANCH   9  11
ENDBRANCH   7   9
ENDBRANCH   5   7
ENDBRANCH   3   5
BRANCH   2  19
ATOM     19  C   LIG     1      -0.738  -1.109   1.789  0.00  0.00    +0.153 C 
BRANCH  19  20
ATOM     20  C   LIG     1      -0.247  -1.557   0.467  0.00  0.00    +0.059 A 
ATOM     21  N   LIG     1       0.264  -2.811   0.294  0.00  0.00    -0.229 NA
ATOM     22  C   LIG     1       0.663  -3.153  -0.953  0.00  0.00    +0.165 A 
ATOM     23  N   LIG     1       1.211  -4.311  -1.388  0.00  0.00    -0.264 N 
ATOM     24  H   LIG     1       1.506  -4.330  -2.353  0.00  0.00    +0.157 HD
ATOM     25  C   LIG     1       1.402  -5.445  -0.656  0.00  0.00    +0.223 C 
ATOM     26  O   LIG     1       1.002  -5.558   0.528  0.00  0.00    -0.275 OA
ATOM     27  S   LIG     1       0.363  -1.759  -1.972  0.00  0.00    -0.060 S 
ATOM     28  C   LIG     1      -0.289  -0.762  -0.687  0.00  0.00    +0.072 A 
BRANCH  25  29
ATOM     29  C   LIG     1       2.121  -6.582  -1.265  0.00  0.00    +0.138 C 
BRANCH  29  30
ATOM     30  C   LIG     1       3.465  -6.708  -0.674  0.00  0.00    -0.001 A 
ATOM     31  S   LIG     1       3.893  -7.631   0.758  0.00  0.00    -0.101 S 
ATOM     32  C   LIG     1       5.587  -7.179   0.759  0.00  0.00    +0.045 A 
ATOM     33  C   LIG     1       5.786  -6.338  -0.338  0.00  0.00    +0.008 A 
ATOM     34  C   LIG     1       4.641  -6.083  -1.114  0.00  0.00    +0.011 A 
ENDBRANCH  29  30
ENDBRANCH  25  29
ENDBRANCH  19  20
ENDBRANCH   2  19
TORSDOF 9
