REMARK    Small molecule (ligand)
REMARK    Compound: Z1135864192_2_T1
REMARK    SMILES: COc1ccccc1C(=O)N[C@@H](CCSC)C(=O)NNC(=S)Nc1ccc(cc1)N(C)C
REMARK    The ligand was originally not a salt, therefore no desalting was carried out.
REMARK    The tautomeric state was generated by cxcalc version 18.20.0 of ChemAxons JChem Suite.
REMARK    Protonation state was generated at pH 7.4 by cxcalc version 18.20.0 of ChemAxons JChem Suite.
REMARK    Generation of the 3D conformation was carried out by molconvert version 18.20.0 of ChemAxons JChem Suite.
REMARK    Generation of the the target format file (pdbqt) was carried out by Open Babel version 2.4.1.
REMARK    Created on Tue Nov 13 13:45:43 EST 2018
REMARK  16 active torsions:
REMARK  status: ('A' for Active; 'I' for Inactive)
REMARK    1  A    between atoms: _1  and  _2
REMARK    2  A    between atoms: _2  and  _3
REMARK    3  A    between atoms: _8  and  _9
REMARK    4  A    between atoms: _11  and  _12
REMARK    5  A    between atoms: _12  and  _13
REMARK    6  A    between atoms: _12  and  _17
REMARK    7  A    between atoms: _13  and  _14
REMARK    8  A    between atoms: _14  and  _15
REMARK    9  A    between atoms: _15  and  _16
REMARK   10  A    between atoms: _19  and  _20
REMARK   11  A    between atoms: _20  and  _21
REMARK   12  A    between atoms: _21  and  _23
REMARK   13  A    between atoms: _23  and  _24
REMARK   14  A    between atoms: _27  and  _30
REMARK   15  A    between atoms: _30  and  _31
REMARK   16  A    between atoms: _30  and  _32
REMARK                            x       y       z     vdW  Elec       q    Type
REMARK                         _______ _______ _______ _____ _____    ______ ____
ROOT
ATOM      1  C   LIG     1      -3.632   3.512  -0.260  0.00  0.00    +0.249 C 
ATOM      2  N   LIG     1      -4.156   4.238  -1.278  0.00  0.00    -0.234 N 
ATOM      3  H   LIG     1      -3.538   4.660  -1.955  0.00  0.00    +0.173 HD
ATOM      4  O   LIG     1      -4.388   2.986   0.594  0.00  0.00    -0.272 OA
ENDROOT
BRANCH   2   5
ATOM      5  N   LIG     1      -5.491   4.409  -1.408  0.00  0.00    -0.246 N 
ATOM      6  H   LIG     1      -6.162   4.159  -0.697  0.00  0.00    +0.172 HD
BRANCH   5   7
ATOM      7  C   LIG     1      -5.797   4.965  -2.629  0.00  0.00    +0.151 C 
ATOM      8  S   LIG     1      -5.846   3.944  -3.990  0.00  0.00    -0.017 S 
BRANCH   7   9
ATOM      9  N   LIG     1      -6.028   6.260  -2.840  0.00  0.00    -0.296 N 
ATOM     10  H   LIG     1      -6.204   6.498  -3.805  0.00  0.00    +0.154 HD
BRANCH   9  11
ATOM     11  C   LIG     1      -6.055   7.278  -1.933  0.00  0.00    +0.033 A 
ATOM     12  C   LIG     1      -6.606   7.201  -0.636  0.00  0.00    +0.025 A 
ATOM     13  C   LIG     1      -6.478   8.278   0.260  0.00  0.00    +0.025 A 
ATOM     14  C   LIG     1      -5.813   9.488  -0.093  0.00  0.00    +0.029 A 
ATOM     15  C   LIG     1      -5.386   9.578  -1.448  0.00  0.00    +0.025 A 
ATOM     16  C   LIG     1      -5.494   8.500  -2.343  0.00  0.00    +0.025 A 
BRANCH  14  17
ATOM     17  N   LIG     1      -5.577  10.516   0.842  0.00  0.00    -0.336 N 
ATOM     18  C   LIG     1      -4.890  11.736   0.463  0.00  0.00    +0.129 C 
ATOM     19  C   LIG     1      -5.999  10.389   2.225  0.00  0.00    +0.129 C 
ENDBRANCH  14  17
ENDBRANCH   9  11
ENDBRANCH   7   9
ENDBRANCH   5   7
ENDBRANCH   2   5
BRANCH   1  20
ATOM     20  C   LIG     1      -2.162   3.369  -0.116  0.00  0.00    +0.161 C 
BRANCH  20  22
ATOM     21  C   LIG     1      -1.221   5.398   1.010  0.00  0.00    +0.248 C 
ATOM     22  N   LIG     1      -1.770   4.145   1.026  0.00  0.00    -0.300 N 
ATOM     23  H   LIG     1      -1.895   3.764   1.953  0.00  0.00    +0.150 HD
ATOM     24  O   LIG     1      -0.960   5.934  -0.095  0.00  0.00    -0.270 OA
BRANCH  21  26
ATOM     25  C   LIG     1      -0.905   7.532   2.257  0.00  0.00    +0.132 A 
ATOM     26  C   LIG     1      -0.980   6.109   2.225  0.00  0.00    +0.078 A 
ATOM     27  C   LIG     1      -0.821   5.409   3.450  0.00  0.00    +0.017 A 
ATOM     28  C   LIG     1      -0.609   6.091   4.660  0.00  0.00    +0.001 A 
ATOM     29  C   LIG     1      -0.527   7.491   4.672  0.00  0.00    +0.004 A 
ATOM     30  C   LIG     1      -0.663   8.207   3.473  0.00  0.00    +0.046 A 
BRANCH  25  32
ATOM     31  C   LIG     1      -2.393   8.760   0.910  0.00  0.00    +0.277 C 
ATOM     32  O   LIG     1      -1.048   8.295   1.124  0.00  0.00    -0.494 OA
ENDBRANCH  25  32
ENDBRANCH  21  26
ENDBRANCH  20  22
BRANCH  20  33
ATOM     33  C   LIG     1      -1.750   1.877   0.057  0.00  0.00    +0.042 C 
BRANCH  33  34
ATOM     34  C   LIG     1      -0.217   1.653   0.074  0.00  0.00    +0.071 C 
BRANCH  34  35
ATOM     35  S   LIG     1       0.122  -0.136   0.171  0.00  0.00    -0.164 S 
ATOM     36  C   LIG     1       1.932  -0.240   0.043  0.00  0.00    +0.084 C 
ENDBRANCH  34  35
ENDBRANCH  33  34
ENDBRANCH  20  33
ENDBRANCH   1  20
TORSDOF 12
