REMARK    Small molecule (ligand)
REMARK    Compound: Z144844210_1_T2
REMARK    SMILES: C[C@H](SCC1=NC2=C(C(=CS2)C2=CC=CC=C2)C(=O)N1)C(=O)NNC(=S)NCC=C
REMARK    The ligand was originally not a salt, therefore no desalting was carried out.
REMARK    The tautomeric state was generated by cxcalc version 18.20.0 of ChemAxons JChem Suite.
REMARK    Protonation state was generated at pH 7.4 by cxcalc version 18.20.0 of ChemAxons JChem Suite.
REMARK    Generation of the 3D conformation was carried out by molconvert version 18.20.0 of ChemAxons JChem Suite.
REMARK    Generation of the the target format file (pdbqt) was carried out by Open Babel version 2.4.1.
REMARK    Created on Tue Nov 13 13:00:14 EST 2018
REMARK  12 active torsions:
REMARK  status: ('A' for Active; 'I' for Inactive)
REMARK    1  A    between atoms: _1  and  _2
REMARK    2  A    between atoms: _2  and  _3
REMARK    3  A    between atoms: _2  and  _21
REMARK    4  A    between atoms: _3  and  _4
REMARK    5  A    between atoms: _4  and  _5
REMARK    6  A    between atoms: _9  and  _12
REMARK    7  A    between atoms: _23  and  _24
REMARK    8  A    between atoms: _24  and  _25
REMARK    9  A    between atoms: _25  and  _27
REMARK   10  A    between atoms: _27  and  _28
REMARK   11  A    between atoms: _28  and  _29
REMARK   12  A    between atoms: _29  and  _30
REMARK                            x       y       z     vdW  Elec       q    Type
REMARK                         _______ _______ _______ _____ _____    ______ ____
ROOT
ATOM      1  C   LIG     1       4.183   4.632   1.874  0.00  0.00    +0.144 C 
ENDROOT
BRANCH   1   2
ATOM      2  C   LIG     1       3.672   3.323   1.420  0.00  0.00    +0.121 A 
ATOM      3  N   LIG     1       3.427   2.325   2.319  0.00  0.00    -0.310 N 
ATOM      4  H   LIG     1       3.584   2.504   3.301  0.00  0.00    +0.170 HD
ATOM      5  C   LIG     1       2.980   1.097   1.943  0.00  0.00    +0.260 A 
ATOM      6  O   LIG     1       2.772   0.249   2.840  0.00  0.00    -0.267 OA
ATOM      7  C   LIG     1       2.754   0.823   0.576  0.00  0.00    +0.080 A 
ATOM      8  C   LIG     1       2.309  -0.379  -0.040  0.00  0.00    +0.004 A 
ATOM      9  C   LIG     1       2.118  -0.276  -1.428  0.00  0.00    +0.056 A 
ATOM     10  S   LIG     1       2.580   1.343  -1.919  0.00  0.00    -0.076 S 
ATOM     11  C   LIG     1       2.989   1.892  -0.307  0.00  0.00    +0.116 A 
ATOM     12  N   LIG     1       3.444   3.101   0.096  0.00  0.00    -0.226 NA
BRANCH   8  13
ATOM     13  C   LIG     1       2.108  -1.605   0.633  0.00  0.00    -0.017 A 
ATOM     14  C   LIG     1       0.825  -2.192   0.712  0.00  0.00    +0.008 A 
ATOM     15  C   LIG     1       0.651  -3.434   1.352  0.00  0.00    +0.001 A 
ATOM     16  C   LIG     1       1.756  -4.093   1.923  0.00  0.00    +0.000 A 
ATOM     17  C   LIG     1       3.034  -3.510   1.864  0.00  0.00    +0.001 A 
ATOM     18  C   LIG     1       3.209  -2.273   1.219  0.00  0.00    +0.008 A 
ENDBRANCH   8  13
ENDBRANCH   1   2
BRANCH   1  19
ATOM     19  S   LIG     1       5.975   4.812   1.593  0.00  0.00    -0.141 S 
BRANCH  19  21
ATOM     20  C   LIG     1       8.254   3.384   2.263  0.00  0.00    +0.029 C 
ATOM     21  C   LIG     1       6.734   3.451   2.548  0.00  0.00    +0.131 C 
BRANCH  21  22
ATOM     22  C   LIG     1       6.413   3.539   3.998  0.00  0.00    +0.242 C 
ATOM     23  N   LIG     1       6.900   4.521   4.805  0.00  0.00    -0.234 N 
ATOM     24  H   LIG     1       7.476   5.252   4.414  0.00  0.00    +0.173 HD
ATOM     25  O   LIG     1       5.669   2.656   4.490  0.00  0.00    -0.273 OA
BRANCH  23  26
ATOM     26  N   LIG     1       6.623   4.531   6.132  0.00  0.00    -0.246 N 
ATOM     27  H   LIG     1       6.481   3.679   6.656  0.00  0.00    +0.172 HD
BRANCH  26  28
ATOM     28  C   LIG     1       6.553   5.777   6.698  0.00  0.00    +0.147 C 
ATOM     29  S   LIG     1       7.914   6.282   7.595  0.00  0.00    -0.017 S 
BRANCH  28  30
ATOM     30  N   LIG     1       5.434   6.494   6.568  0.00  0.00    -0.325 N 
ATOM     31  H   LIG     1       4.923   6.281   5.723  0.00  0.00    +0.148 HD
BRANCH  30  32
ATOM     32  C   LIG     1       4.954   7.478   7.498  0.00  0.00    +0.107 C 
BRANCH  32  33
ATOM     33  C   LIG     1       3.988   8.382   6.901  0.00  0.00    +0.011 C 
ATOM     34  C   LIG     1       3.182   9.155   7.640  0.00  0.00    +0.006 C 
ENDBRANCH  32  33
ENDBRANCH  30  32
ENDBRANCH  28  30
ENDBRANCH  26  28
ENDBRANCH  23  26
ENDBRANCH  21  22
ENDBRANCH  19  21
ENDBRANCH   1  19
TORSDOF 10
