REMARK    Small molecule (ligand)
REMARK    Compound: Z185084532_1_T1
REMARK    SMILES: S=C(NCCCNC(=S)Nc1ccc2OCCOc2c1)Nc1ccc2OCCOc2c1
REMARK    The ligand was originally not a salt, therefore no desalting was carried out.
REMARK    The tautomeric state was generated by cxcalc version 18.20.0 of ChemAxons JChem Suite.
REMARK    Protonation state was generated at pH 7.4 by cxcalc version 18.20.0 of ChemAxons JChem Suite.
REMARK    Generation of the 3D conformation was carried out by molconvert version 18.20.0 of ChemAxons JChem Suite.
REMARK    Generation of the the target format file (pdbqt) was carried out by Open Babel version 2.4.1.
REMARK    Created on Tue Nov 13 13:00:09 EST 2018
REMARK  10 active torsions:
REMARK  status: ('A' for Active; 'I' for Inactive)
REMARK    1  A    between atoms: _2  and  _3
REMARK    2  A    between atoms: _2  and  _21
REMARK    3  A    between atoms: _3  and  _4
REMARK    4  A    between atoms: _4  and  _5
REMARK    5  A    between atoms: _5  and  _6
REMARK    6  A    between atoms: _6  and  _7
REMARK    7  A    between atoms: _7  and  _8
REMARK    8  A    between atoms: _8  and  _10
REMARK    9  A    between atoms: _10  and  _11
REMARK   10  A    between atoms: _21  and  _22
REMARK                            x       y       z     vdW  Elec       q    Type
REMARK                         _______ _______ _______ _____ _____    ______ ____
ROOT
ATOM      1  C   LIG     1      -3.669   2.477  -0.235  0.00  0.00    +0.037 C 
ENDROOT
BRANCH   1   2
ATOM      2  C   LIG     1      -2.540   1.433  -0.423  0.00  0.00    +0.105 C 
BRANCH   2   3
ATOM      3  N   LIG     1      -1.286   2.113  -0.518  0.00  0.00    -0.326 N 
ATOM      4  H   LIG     1      -1.246   3.115  -0.639  0.00  0.00    +0.148 HD
BRANCH   3   6
ATOM      5  S   LIG     1       1.209   2.666  -0.636  0.00  0.00    -0.019 S 
ATOM      6  C   LIG     1      -0.080   1.561  -0.465  0.00  0.00    +0.135 C 
BRANCH   6   7
ATOM      7  N   LIG     1       0.096   0.258  -0.208  0.00  0.00    -0.297 N 
ATOM      8  H   LIG     1      -0.729  -0.249   0.081  0.00  0.00    +0.154 HD
BRANCH   7   9
ATOM      9  C   LIG     1       1.263  -0.434  -0.299  0.00  0.00    +0.036 A 
ATOM     10  C   LIG     1       2.075  -0.409  -1.455  0.00  0.00    +0.072 A 
ATOM     11  C   LIG     1       3.329  -1.048  -1.462  0.00  0.00    +0.164 A 
ATOM     12  O   LIG     1       4.098  -1.001  -2.607  0.00  0.00    -0.485 OA
ATOM     13  C   LIG     1       5.504  -1.273  -2.418  0.00  0.00    +0.270 C 
ATOM     14  C   LIG     1       5.694  -2.506  -1.499  0.00  0.00    +0.270 C 
ATOM     15  O   LIG     1       5.024  -2.310  -0.235  0.00  0.00    -0.485 OA
ATOM     16  C   LIG     1       3.768  -1.746  -0.306  0.00  0.00    +0.162 A 
ATOM     17  C   LIG     1       2.928  -1.827   0.820  0.00  0.00    +0.051 A 
ATOM     18  C   LIG     1       1.675  -1.188   0.818  0.00  0.00    +0.027 A 
ENDBRANCH   7   9
ENDBRANCH   6   7
ENDBRANCH   3   6
ENDBRANCH   2   3
ENDBRANCH   1   2
BRANCH   1  19
ATOM     19  C   LIG     1      -5.085   1.867  -0.071  0.00  0.00    +0.105 C 
BRANCH  19  20
ATOM     20  N   LIG     1      -5.978   2.839   0.485  0.00  0.00    -0.326 N 
ATOM     21  H   LIG     1      -5.754   3.823   0.449  0.00  0.00    +0.148 HD
BRANCH  20  22
ATOM     22  C   LIG     1      -7.150   2.593   1.087  0.00  0.00    +0.135 C 
ATOM     23  S   LIG     1      -8.065   1.195   0.745  0.00  0.00    -0.019 S 
BRANCH  22  24
ATOM     24  N   LIG     1      -7.716   3.445   1.944  0.00  0.00    -0.297 N 
ATOM     25  H   LIG     1      -8.715   3.327   2.035  0.00  0.00    +0.154 HD
BRANCH  24  26
ATOM     26  C   LIG     1      -7.139   4.434   2.697  0.00  0.00    +0.036 A 
ATOM     27  C   LIG     1      -5.757   4.513   2.993  0.00  0.00    +0.072 A 
ATOM     28  C   LIG     1      -5.236   5.568   3.763  0.00  0.00    +0.164 A 
ATOM     29  O   LIG     1      -3.882   5.599   4.008  0.00  0.00    -0.485 OA
ATOM     30  C   LIG     1      -3.363   6.892   4.374  0.00  0.00    +0.270 C 
ATOM     31  C   LIG     1      -4.257   7.521   5.471  0.00  0.00    +0.270 C 
ATOM     32  O   LIG     1      -5.631   7.620   5.028  0.00  0.00    -0.485 OA
ATOM     33  C   LIG     1      -6.108   6.552   4.294  0.00  0.00    +0.162 A 
ATOM     34  C   LIG     1      -7.487   6.465   4.028  0.00  0.00    +0.051 A 
ATOM     35  C   LIG     1      -7.996   5.416   3.240  0.00  0.00    +0.027 A 
ENDBRANCH  24  26
ENDBRANCH  22  24
ENDBRANCH  20  22
ENDBRANCH  19  20
ENDBRANCH   1  19
TORSDOF 10
