REMARK    Small molecule (ligand)
REMARK    Compound: Z231184236_1_T2
REMARK    SMILES: O=C(CSCC1=NC2=C(C3=C(CCC3)S2)C(=O)N1)NNC(=S)NCCC1=CC=CS1
REMARK    The ligand was originally not a salt, therefore no desalting was carried out.
REMARK    The tautomeric state was generated by cxcalc version 18.20.0 of ChemAxons JChem Suite.
REMARK    Protonation state was generated at pH 7.4 by cxcalc version 18.20.0 of ChemAxons JChem Suite.
REMARK    Generation of the 3D conformation was carried out by molconvert version 18.20.0 of ChemAxons JChem Suite.
REMARK    Generation of the the target format file (pdbqt) was carried out by Open Babel version 2.4.1.
REMARK    Created on Tue Nov 13 13:00:05 EST 2018
REMARK  10 active torsions:
REMARK  status: ('A' for Active; 'I' for Inactive)
REMARK    1  A    between atoms: _2  and  _3
REMARK    2  A    between atoms: _3  and  _4
REMARK    3  A    between atoms: _4  and  _5
REMARK    4  A    between atoms: _5  and  _6
REMARK    5  A    between atoms: _19  and  _20
REMARK    6  A    between atoms: _20  and  _21
REMARK    7  A    between atoms: _21  and  _23
REMARK    8  A    between atoms: _23  and  _24
REMARK    9  A    between atoms: _24  and  _25
REMARK   10  A    between atoms: _25  and  _26
REMARK                            x       y       z     vdW  Elec       q    Type
REMARK                         _______ _______ _______ _____ _____    ______ ____
ROOT
ATOM      1  O   LIG     1      -2.945   3.704   1.730  0.00  0.00    -0.273 OA
ATOM      2  C   LIG     1      -2.458   3.266   0.661  0.00  0.00    +0.239 C 
ATOM      3  N   LIG     1      -2.257   4.083  -0.402  0.00  0.00    -0.234 N 
ATOM      4  H   LIG     1      -1.924   3.688  -1.270  0.00  0.00    +0.173 HD
ENDROOT
BRANCH   3   5
ATOM      5  N   LIG     1      -2.487   5.412  -0.344  0.00  0.00    -0.246 N 
ATOM      6  H   LIG     1      -2.119   6.008   0.384  0.00  0.00    +0.172 HD
BRANCH   5   7
ATOM      7  C   LIG     1      -3.270   5.844  -1.382  0.00  0.00    +0.147 C 
ATOM      8  S   LIG     1      -4.947   5.539  -1.323  0.00  0.00    -0.017 S 
BRANCH   7   9
ATOM      9  N   LIG     1      -2.673   6.551  -2.337  0.00  0.00    -0.325 N 
ATOM     10  H   LIG     1      -1.687   6.348  -2.422  0.00  0.00    +0.148 HD
BRANCH   9  11
ATOM     11  C   LIG     1      -3.306   7.509  -3.185  0.00  0.00    +0.108 C 
BRANCH  11  12
ATOM     12  C   LIG     1      -2.244   8.297  -3.993  0.00  0.00    +0.061 C 
BRANCH  12  13
ATOM     13  C   LIG     1      -2.821   9.473  -4.671  0.00  0.00    -0.009 A 
ATOM     14  S   LIG     1      -2.762  11.130  -4.092  0.00  0.00    -0.102 S 
ATOM     15  C   LIG     1      -3.714  11.810  -5.399  0.00  0.00    +0.045 A 
ATOM     16  C   LIG     1      -4.051  10.756  -6.250  0.00  0.00    +0.008 A 
ATOM     17  C   LIG     1      -3.570   9.493  -5.856  0.00  0.00    +0.011 A 
ENDBRANCH  12  13
ENDBRANCH  11  12
ENDBRANCH   9  11
ENDBRANCH   7   9
ENDBRANCH   5   7
ENDBRANCH   3   5
BRANCH   2  18
ATOM     18  C   LIG     1      -2.072   1.850   0.557  0.00  0.00    +0.166 C 
BRANCH  18  19
ATOM     19  S   LIG     1      -0.289   1.749   0.205  0.00  0.00    -0.144 S 
BRANCH  19  20
ATOM     20  C   LIG     1      -0.007  -0.004  -0.177  0.00  0.00    +0.143 C 
BRANCH  20  21
ATOM     21  C   LIG     1       1.377  -0.120  -0.657  0.00  0.00    +0.121 A 
ATOM     22  N   LIG     1       1.638  -0.147  -1.997  0.00  0.00    -0.310 N 
ATOM     23  H   LIG     1       0.866  -0.141  -2.648  0.00  0.00    +0.170 HD
ATOM     24  C   LIG     1       2.907  -0.182  -2.488  0.00  0.00    +0.260 A 
ATOM     25  O   LIG     1       3.075  -0.197  -3.727  0.00  0.00    -0.267 OA
ATOM     26  C   LIG     1       3.990  -0.191  -1.587  0.00  0.00    +0.075 A 
ATOM     27  C   LIG     1       5.376  -0.186  -1.855  0.00  0.00    -0.023 A 
ATOM     28  C   LIG     1       6.151  -0.133  -3.090  0.00  0.00    +0.037 C 
ATOM     29  C   LIG     1       7.626  -0.169  -2.585  0.00  0.00    +0.010 C 
ATOM     30  C   LIG     1       7.621  -0.175  -1.028  0.00  0.00    +0.043 C 
ATOM     31  C   LIG     1       6.200  -0.203  -0.749  0.00  0.00    -0.004 A 
ATOM     32  S   LIG     1       5.189  -0.214   0.686  0.00  0.00    -0.073 S 
ATOM     33  C   LIG     1       3.677  -0.189  -0.214  0.00  0.00    +0.116 A 
ATOM     34  N   LIG     1       2.404  -0.148   0.239  0.00  0.00    -0.226 NA
ENDBRANCH  20  21
ENDBRANCH  19  20
ENDBRANCH  18  19
ENDBRANCH   2  18
TORSDOF 10
