REMARK    Small molecule (ligand)
REMARK    Compound: Z257270866_1_T1
REMARK    SMILES: O=C(Cc1csc(NC(=O)c2cccs2)n1)NNC(=S)NCCc1cccs1
REMARK    The ligand was originally not a salt, therefore no desalting was carried out.
REMARK    The tautomeric state was generated by cxcalc version 18.20.0 of ChemAxons JChem Suite.
REMARK    Protonation state was generated at pH 7.4 by cxcalc version 18.20.0 of ChemAxons JChem Suite.
REMARK    Generation of the 3D conformation was carried out by molconvert version 18.20.0 of ChemAxons JChem Suite.
REMARK    Generation of the the target format file (pdbqt) was carried out by Open Babel version 2.4.1.
REMARK    Created on Tue Nov 13 12:59:43 EST 2018
REMARK  9 active torsions:
REMARK  status: ('A' for Active; 'I' for Inactive)
REMARK    1  A    between atoms: _2  and  _3
REMARK    2  A    between atoms: _3  and  _4
REMARK    3  A    between atoms: _9  and  _11
REMARK    4  A    between atoms: _17  and  _18
REMARK    5  A    between atoms: _18  and  _19
REMARK    6  A    between atoms: _19  and  _21
REMARK    7  A    between atoms: _21  and  _22
REMARK    8  A    between atoms: _22  and  _23
REMARK    9  A    between atoms: _23  and  _24
REMARK                            x       y       z     vdW  Elec       q    Type
REMARK                         _______ _______ _______ _____ _____    ______ ____
ROOT
ATOM      1  O   LIG     1      -2.988  -0.712   1.580  0.00  0.00    -0.274 OA
ATOM      2  C   LIG     1      -2.175  -1.666   1.506  0.00  0.00    +0.235 C 
ATOM      3  N   LIG     1      -2.611  -2.950   1.570  0.00  0.00    -0.235 N 
ATOM      4  H   LIG     1      -1.941  -3.702   1.501  0.00  0.00    +0.173 HD
ENDROOT
BRANCH   3   5
ATOM      5  N   LIG     1      -3.920  -3.252   1.723  0.00  0.00    -0.246 N 
ATOM      6  H   LIG     1      -4.658  -2.701   1.308  0.00  0.00    +0.172 HD
BRANCH   5   7
ATOM      7  C   LIG     1      -4.140  -4.371   2.491  0.00  0.00    +0.147 C 
ATOM      8  S   LIG     1      -3.725  -4.348   4.146  0.00  0.00    -0.017 S 
BRANCH   7   9
ATOM      9  N   LIG     1      -4.739  -5.398   1.891  0.00  0.00    -0.325 N 
ATOM     10  H   LIG     1      -4.808  -5.275   0.891  0.00  0.00    +0.148 HD
BRANCH   9  11
ATOM     11  C   LIG     1      -5.255  -6.577   2.514  0.00  0.00    +0.108 C 
BRANCH  11  12
ATOM     12  C   LIG     1      -5.949  -7.468   1.452  0.00  0.00    +0.061 C 
BRANCH  12  13
ATOM     13  C   LIG     1      -6.872  -8.453   2.051  0.00  0.00    -0.009 A 
ATOM     14  S   LIG     1      -8.619  -8.286   2.119  0.00  0.00    -0.102 S 
ATOM     15  C   LIG     1      -8.912  -9.778   2.988  0.00  0.00    +0.045 A 
ATOM     16  C   LIG     1      -7.665 -10.367   3.210  0.00  0.00    +0.008 A 
ATOM     17  C   LIG     1      -6.561  -9.653   2.705  0.00  0.00    +0.011 A 
ENDBRANCH  12  13
ENDBRANCH  11  12
ENDBRANCH   9  11
ENDBRANCH   7   9
ENDBRANCH   5   7
ENDBRANCH   3   5
BRANCH   2  18
ATOM     18  C   LIG     1      -0.736  -1.380   1.349  0.00  0.00    +0.153 C 
BRANCH  18  19
ATOM     19  C   LIG     1      -0.225  -1.886   0.058  0.00  0.00    +0.059 A 
ATOM     20  N   LIG     1       0.346  -3.120  -0.039  0.00  0.00    -0.229 NA
ATOM     21  C   LIG     1       0.787  -3.508  -1.258  0.00  0.00    +0.165 A 
ATOM     22  N   LIG     1       1.393  -4.668  -1.616  0.00  0.00    -0.260 N 
ATOM     23  H   LIG     1       1.805  -4.694  -2.537  0.00  0.00    +0.157 HD
ATOM     24  C   LIG     1       1.501  -5.795  -0.856  0.00  0.00    +0.256 C 
ATOM     25  O   LIG     1       0.956  -5.878   0.271  0.00  0.00    -0.269 OA
ATOM     26  S   LIG     1       0.454  -2.178  -2.353  0.00  0.00    -0.060 S 
ATOM     27  C   LIG     1      -0.294  -1.159  -1.140  0.00  0.00    +0.072 A 
BRANCH  24  28
ATOM     28  C   LIG     1       2.222  -6.902  -1.352  0.00  0.00    +0.074 A 
ATOM     29  S   LIG     1       3.205  -6.929  -2.809  0.00  0.00    -0.092 S 
ATOM     30  C   LIG     1       3.656  -8.618  -2.699  0.00  0.00    +0.046 A 
ATOM     31  C   LIG     1       3.062  -9.121  -1.540  0.00  0.00    +0.008 A 
ATOM     32  C   LIG     1       2.296  -8.195  -0.808  0.00  0.00    +0.021 A 
ENDBRANCH  24  28
ENDBRANCH  18  19
ENDBRANCH   2  18
TORSDOF 9
