REMARK    Small molecule (ligand)
REMARK    Compound: Z337103946_1_T1
REMARK    SMILES: O=C(Cc1ccc(NS(=O)(=O)c2cccs2)cc1)NNC(=S)NCCc1cccs1
REMARK    The ligand was originally not a salt, therefore no desalting was carried out.
REMARK    The tautomeric state was generated by cxcalc version 18.20.0 of ChemAxons JChem Suite.
REMARK    Protonation state was generated at pH 7.4 by cxcalc version 18.20.0 of ChemAxons JChem Suite.
REMARK    Generation of the 3D conformation was carried out by molconvert version 18.20.0 of ChemAxons JChem Suite.
REMARK    Generation of the the target format file (pdbqt) was carried out by Open Babel version 2.4.1.
REMARK    Created on Tue Nov 13 13:45:49 EST 2018
REMARK  11 active torsions:
REMARK  status: ('A' for Active; 'I' for Inactive)
REMARK    1  A    between atoms: _2  and  _3
REMARK    2  A    between atoms: _3  and  _4
REMARK    3  A    between atoms: _7  and  _8
REMARK    4  A    between atoms: _8  and  _9
REMARK    5  A    between atoms: _9  and  _12
REMARK    6  A    between atoms: _19  and  _20
REMARK    7  A    between atoms: _20  and  _21
REMARK    8  A    between atoms: _21  and  _23
REMARK    9  A    between atoms: _23  and  _24
REMARK   10  A    between atoms: _24  and  _25
REMARK   11  A    between atoms: _25  and  _26
REMARK                            x       y       z     vdW  Elec       q    Type
REMARK                         _______ _______ _______ _____ _____    ______ ____
ROOT
ATOM      1  O   LIG     1      -5.551  -1.749   2.324  0.00  0.00    -0.274 OA
ATOM      2  C   LIG     1      -4.830  -0.747   2.104  0.00  0.00    +0.233 C 
ATOM      3  N   LIG     1      -4.128  -0.170   3.118  0.00  0.00    -0.235 N 
ATOM      4  H   LIG     1      -3.596   0.667   2.924  0.00  0.00    +0.173 HD
ENDROOT
BRANCH   3   5
ATOM      5  N   LIG     1      -4.105  -0.662   4.379  0.00  0.00    -0.246 N 
ATOM      6  H   LIG     1      -3.848  -1.614   4.599  0.00  0.00    +0.172 HD
BRANCH   5   7
ATOM      7  C   LIG     1      -4.470   0.279   5.308  0.00  0.00    +0.147 C 
ATOM      8  S   LIG     1      -6.129   0.631   5.494  0.00  0.00    -0.017 S 
BRANCH   7   9
ATOM      9  N   LIG     1      -3.503   0.811   6.056  0.00  0.00    -0.325 N 
ATOM     10  H   LIG     1      -2.583   0.691   5.657  0.00  0.00    +0.148 HD
BRANCH   9  11
ATOM     11  C   LIG     1      -3.679   1.493   7.301  0.00  0.00    +0.108 C 
BRANCH  11  12
ATOM     12  C   LIG     1      -2.306   1.767   7.964  0.00  0.00    +0.061 C 
BRANCH  12  13
ATOM     13  C   LIG     1      -2.424   2.181   9.377  0.00  0.00    -0.009 A 
ATOM     14  S   LIG     1      -2.170   1.138  10.767  0.00  0.00    -0.102 S 
ATOM     15  C   LIG     1      -2.512   2.357  11.978  0.00  0.00    +0.045 A 
ATOM     16  C   LIG     1      -2.825   3.533  11.292  0.00  0.00    +0.008 A 
ATOM     17  C   LIG     1      -2.780   3.438   9.887  0.00  0.00    +0.011 A 
ENDBRANCH  12  13
ENDBRANCH  11  12
ENDBRANCH   9  11
ENDBRANCH   7   9
ENDBRANCH   5   7
ENDBRANCH   3   5
BRANCH   2  18
ATOM     18  C   LIG     1      -4.719  -0.210   0.727  0.00  0.00    +0.132 C 
BRANCH  18  19
ATOM     19  C   LIG     1      -3.285  -0.166   0.335  0.00  0.00    -0.038 A 
ATOM     20  C   LIG     1      -2.519   1.000   0.560  0.00  0.00    +0.006 A 
ATOM     21  C   LIG     1      -1.129   0.990   0.360  0.00  0.00    +0.025 A 
ATOM     22  C   LIG     1      -0.469  -0.177  -0.076  0.00  0.00    +0.048 A 
ATOM     23  C   LIG     1      -1.245  -1.322  -0.373  0.00  0.00    +0.025 A 
ATOM     24  C   LIG     1      -2.638  -1.316  -0.172  0.00  0.00    +0.006 A 
BRANCH  22  25
ATOM     25  N   LIG     1       0.888  -0.114  -0.167  0.00  0.00    -0.216 N 
ATOM     26  H   LIG     1       1.083   0.877  -0.166  0.00  0.00    +0.174 HD
BRANCH  25  27
ATOM     27  S   LIG     1       1.969  -1.447  -0.259  0.00  0.00    +0.079 S 
ATOM     28  O   LIG     1       2.048  -1.957  -1.778  0.00  0.00    -0.149 OA
ATOM     29  O   LIG     1       1.433  -2.643   0.669  0.00  0.00    -0.149 OA
BRANCH  27  30
ATOM     30  C   LIG     1       3.569  -0.953   0.302  0.00  0.00    +0.146 A 
ATOM     31  S   LIG     1       4.409   0.526  -0.128  0.00  0.00    -0.077 S 
ATOM     32  C   LIG     1       5.821   0.219   0.868  0.00  0.00    +0.047 A 
ATOM     33  C   LIG     1       5.619  -1.015   1.494  0.00  0.00    +0.010 A 
ATOM     34  C   LIG     1       4.401  -1.650   1.186  0.00  0.00    +0.036 A 
ENDBRANCH  27  30
ENDBRANCH  25  27
ENDBRANCH  22  25
ENDBRANCH  18  19
ENDBRANCH   2  18
TORSDOF 11
