REMARK    Small molecule (ligand)
REMARK    Compound: Z355857334_1_T1
REMARK    SMILES: O=C(NNC(=S)NCCc1cccs1)c1ccc(cc1)S(=O)(=O)NCCc1cccs1
REMARK    The ligand was originally not a salt, therefore no desalting was carried out.
REMARK    The tautomeric state was generated by cxcalc version 18.20.0 of ChemAxons JChem Suite.
REMARK    Protonation state was generated at pH 7.4 by cxcalc version 18.20.0 of ChemAxons JChem Suite.
REMARK    Generation of the 3D conformation was carried out by molconvert version 18.20.0 of ChemAxons JChem Suite.
REMARK    Generation of the the target format file (pdbqt) was carried out by Open Babel version 2.4.1.
REMARK    Created on Tue Nov 13 13:45:48 EST 2018
REMARK  12 active torsions:
REMARK  status: ('A' for Active; 'I' for Inactive)
REMARK    1  A    between atoms: _2  and  _15
REMARK    2  A    between atoms: _3  and  _4
REMARK    3  A    between atoms: _4  and  _5
REMARK    4  A    between atoms: _5  and  _7
REMARK    5  A    between atoms: _7  and  _8
REMARK    6  A    between atoms: _8  and  _9
REMARK    7  A    between atoms: _9  and  _10
REMARK    8  A    between atoms: _18  and  _21
REMARK    9  A    between atoms: _21  and  _24
REMARK   10  A    between atoms: _24  and  _25
REMARK   11  A    between atoms: _25  and  _26
REMARK   12  A    between atoms: _26  and  _27
REMARK                            x       y       z     vdW  Elec       q    Type
REMARK                         _______ _______ _______ _____ _____    ______ ____
ROOT
ATOM      1  C   LIG     1       4.424   0.901   2.418  0.00  0.00    +0.038 A 
ATOM      2  C   LIG     1       3.868   0.667   1.135  0.00  0.00    +0.015 A 
ATOM      3  C   LIG     1       4.458   1.199  -0.023  0.00  0.00    +0.029 A 
ATOM      4  C   LIG     1       5.648   1.946   0.060  0.00  0.00    +0.105 A 
ATOM      5  C   LIG     1       6.193   2.224   1.330  0.00  0.00    +0.029 A 
ATOM      6  C   LIG     1       5.586   1.710   2.495  0.00  0.00    +0.015 A 
ENDROOT
BRANCH   1   8
ATOM      7  O   LIG     1       2.619  -0.032   3.531  0.00  0.00    -0.269 OA
ATOM      8  C   LIG     1       3.824   0.318   3.571  0.00  0.00    +0.260 C 
ATOM      9  N   LIG     1       4.527   0.079   4.711  0.00  0.00    -0.231 N 
ATOM     10  H   LIG     1       5.480   0.404   4.777  0.00  0.00    +0.173 HD
BRANCH   9  11
ATOM     11  N   LIG     1       3.988  -0.585   5.765  0.00  0.00    -0.246 N 
ATOM     12  H   LIG     1       3.496  -1.461   5.663  0.00  0.00    +0.172 HD
BRANCH  11  13
ATOM     13  C   LIG     1       4.173   0.041   6.971  0.00  0.00    +0.147 C 
ATOM     14  S   LIG     1       3.177   1.371   7.356  0.00  0.00    -0.017 S 
BRANCH  13  15
ATOM     15  N   LIG     1       5.062  -0.494   7.806  0.00  0.00    -0.325 N 
ATOM     16  H   LIG     1       5.663  -1.168   7.354  0.00  0.00    +0.148 HD
BRANCH  15  17
ATOM     17  C   LIG     1       5.212  -0.200   9.198  0.00  0.00    +0.108 C 
BRANCH  17  18
ATOM     18  C   LIG     1       6.224  -1.175   9.853  0.00  0.00    +0.061 C 
BRANCH  18  19
ATOM     19  C   LIG     1       6.156  -1.151  11.326  0.00  0.00    -0.009 A 
ATOM     20  S   LIG     1       5.289  -2.298  12.333  0.00  0.00    -0.102 S 
ATOM     21  C   LIG     1       5.633  -1.499  13.854  0.00  0.00    +0.045 A 
ATOM     22  C   LIG     1       6.421  -0.384  13.558  0.00  0.00    +0.008 A 
ATOM     23  C   LIG     1       6.707  -0.198  12.192  0.00  0.00    +0.011 A 
ENDBRANCH  18  19
ENDBRANCH  17  18
ENDBRANCH  15  17
ENDBRANCH  13  15
ENDBRANCH  11  13
ENDBRANCH   9  11
ENDBRANCH   1   8
BRANCH   4  24
ATOM     24  S   LIG     1       6.444   2.512  -1.420  0.00  0.00    +0.058 S 
ATOM     25  O   LIG     1       8.037   2.369  -1.298  0.00  0.00    -0.153 OA
ATOM     26  O   LIG     1       6.086   4.057  -1.658  0.00  0.00    -0.153 OA
BRANCH  24  27
ATOM     27  N   LIG     1       5.900   1.609  -2.840  0.00  0.00    -0.190 NA
ATOM     28  H   LIG     1       5.397   1.912  -3.662  0.00  0.00    +0.148 HD
BRANCH  27  29
ATOM     29  C   LIG     1       6.244   0.170  -2.808  0.00  0.00    +0.111 C 
BRANCH  29  30
ATOM     30  C   LIG     1       5.488  -0.575  -3.933  0.00  0.00    +0.059 C 
BRANCH  30  31
ATOM     31  C   LIG     1       5.610  -2.042  -3.824  0.00  0.00    -0.009 A 
ATOM     32  S   LIG     1       4.428  -3.124  -3.104  0.00  0.00    -0.102 S 
ATOM     33  C   LIG     1       5.335  -4.597  -3.389  0.00  0.00    +0.045 A 
ATOM     34  C   LIG     1       6.528  -4.225  -4.014  0.00  0.00    +0.008 A 
ATOM     35  C   LIG     1       6.680  -2.844  -4.244  0.00  0.00    +0.011 A 
ENDBRANCH  30  31
ENDBRANCH  29  30
ENDBRANCH  27  29
ENDBRANCH  24  27
ENDBRANCH   4  24
TORSDOF 12
