REMARK    Small molecule (ligand)
REMARK    Compound: Z363055750_1_T1
REMARK    SMILES: O=S(=O)(NC1CCCC1)C1=CNC(C=C1)=NNC(=S)NCCSC1=CC=CC=C1
REMARK    The ligand was originally not a salt, therefore no desalting was carried out.
REMARK    The tautomeric state was generated by cxcalc version 18.20.0 of ChemAxons JChem Suite.
REMARK    Protonation state was generated at pH 7.4 by cxcalc version 18.20.0 of ChemAxons JChem Suite.
REMARK    Generation of the 3D conformation was carried out by molconvert version 18.20.0 of ChemAxons JChem Suite.
REMARK    Generation of the the target format file (pdbqt) was carried out by Open Babel version 2.4.1.
REMARK    Created on Tue Nov 13 13:45:54 EST 2018
REMARK  11 active torsions:
REMARK  status: ('A' for Active; 'I' for Inactive)
REMARK    1  A    between atoms: _2  and  _4
REMARK    2  A    between atoms: _2  and  _10
REMARK    3  A    between atoms: _4  and  _5
REMARK    4  A    between atoms: _13  and  _16
REMARK    5  A    between atoms: _16  and  _17
REMARK    6  A    between atoms: _17  and  _18
REMARK    7  A    between atoms: _18  and  _20
REMARK    8  A    between atoms: _20  and  _21
REMARK    9  A    between atoms: _21  and  _22
REMARK   10  A    between atoms: _22  and  _23
REMARK   11  A    between atoms: _23  and  _24
REMARK                            x       y       z     vdW  Elec       q    Type
REMARK                         _______ _______ _______ _____ _____    ______ ____
ROOT
ATOM      1  C   LIG     1       1.560  -0.987  -3.624  0.00  0.00    +0.127 C 
ATOM      2  C   LIG     1       2.661  -1.240  -4.466  0.00  0.00    +0.085 C 
ATOM      3  C   LIG     1       2.469  -1.373  -5.856  0.00  0.00    +0.082 C 
ATOM      4  C   LIG     1       1.208  -1.177  -6.394  0.00  0.00    +0.325 C 
ATOM      5  N   LIG     1       0.163  -1.014  -5.576  0.00  0.00    -0.206 N 
ATOM      6  H   LIG     1      -0.757  -0.992  -5.993  0.00  0.00    +0.298 HD
ATOM      7  C   LIG     1       0.290  -0.879  -4.228  0.00  0.00    +0.212 C 
ENDROOT
BRANCH   1   9
ATOM      8  O   LIG     1       2.114   0.707  -1.517  0.00  0.00    -0.153 OA
ATOM      9  S   LIG     1       1.765  -0.819  -1.869  0.00  0.00    +0.059 S 
ATOM     10  O   LIG     1       0.411  -1.232  -1.113  0.00  0.00    -0.153 OA
BRANCH   9  11
ATOM     11  N   LIG     1       3.086  -1.849  -1.303  0.00  0.00    -0.187 NA
ATOM     12  H   LIG     1       3.674  -2.491  -1.814  0.00  0.00    +0.148 HD
BRANCH  11  13
ATOM     13  C   LIG     1       3.393  -1.770   0.147  0.00  0.00    +0.077 C 
ATOM     14  C   LIG     1       2.319  -2.381   1.076  0.00  0.00    +0.020 C 
ATOM     15  C   LIG     1       3.059  -2.877   2.339  0.00  0.00    +0.002 C 
ATOM     16  C   LIG     1       4.566  -2.822   2.013  0.00  0.00    +0.002 C 
ATOM     17  C   LIG     1       4.647  -2.598   0.492  0.00  0.00    +0.020 C 
ENDBRANCH  11  13
ENDBRANCH   9  11
ENDBRANCH   1   9
BRANCH   4  18
ATOM     18  N   LIG     1       1.089  -1.113  -7.673  0.00  0.00    +0.073 NA
BRANCH  18  19
ATOM     19  N   LIG     1       0.035  -0.881  -8.356  0.00  0.00    -0.132 N 
ATOM     20  H   LIG     1      -0.818  -0.766  -7.828  0.00  0.00    +0.201 HD
BRANCH  19  21
ATOM     21  C   LIG     1       0.022  -0.791  -9.685  0.00  0.00    +0.169 C 
ATOM     22  S   LIG     1       1.358  -1.325 -10.612  0.00  0.00    -0.016 S 
BRANCH  21  23
ATOM     23  N   LIG     1      -1.074  -0.254 -10.244  0.00  0.00    -0.323 N 
ATOM     24  H   LIG     1      -1.735   0.104  -9.570  0.00  0.00    +0.148 HD
BRANCH  23  25
ATOM     25  C   LIG     1      -1.339  -0.168 -11.650  0.00  0.00    +0.114 C 
BRANCH  25  26
ATOM     26  C   LIG     1      -2.627   0.614 -12.005  0.00  0.00    +0.093 C 
BRANCH  26  27
ATOM     27  S   LIG     1      -2.804   0.658 -13.820  0.00  0.00    -0.124 S 
BRANCH  27  28
ATOM     28  C   LIG     1      -4.201   1.657 -14.176  0.00  0.00    +0.008 A 
ATOM     29  C   LIG     1      -5.492   1.089 -14.223  0.00  0.00    +0.015 A 
ATOM     30  C   LIG     1      -6.595   1.870 -14.620  0.00  0.00    +0.001 A 
ATOM     31  C   LIG     1      -6.415   3.223 -14.964  0.00  0.00    +0.000 A 
ATOM     32  C   LIG     1      -5.133   3.800 -14.895  0.00  0.00    +0.001 A 
ATOM     33  C   LIG     1      -4.029   3.020 -14.499  0.00  0.00    +0.015 A 
ENDBRANCH  27  28
ENDBRANCH  26  27
ENDBRANCH  25  26
ENDBRANCH  23  25
ENDBRANCH  21  23
ENDBRANCH  19  21
ENDBRANCH  18  19
ENDBRANCH   4  18
TORSDOF 11
