REMARK    Small molecule (ligand)
REMARK    Compound: Z363055172_1_T1
REMARK    SMILES: ClC1=CC=C(SCCNC(=S)NN=C2NC=C(C=C2)S(=O)(=O)NC2CC2)C=C1
REMARK    The ligand was originally not a salt, therefore no desalting was carried out.
REMARK    The tautomeric state was generated by cxcalc version 18.20.0 of ChemAxons JChem Suite.
REMARK    Protonation state was generated at pH 7.4 by cxcalc version 18.20.0 of ChemAxons JChem Suite.
REMARK    Generation of the 3D conformation was carried out by molconvert version 18.20.0 of ChemAxons JChem Suite.
REMARK    Generation of the the target format file (pdbqt) was carried out by Open Babel version 2.4.1.
REMARK    Created on Tue Nov 13 13:45:56 EST 2018
REMARK  10 active torsions:
REMARK  status: ('A' for Active; 'I' for Inactive)
REMARK    1  A    between atoms: _5  and  _6
REMARK    2  A    between atoms: _6  and  _7
REMARK    3  A    between atoms: _7  and  _8
REMARK    4  A    between atoms: _8  and  _9
REMARK    5  A    between atoms: _9  and  _10
REMARK    6  A    between atoms: _10  and  _12
REMARK    7  A    between atoms: _12  and  _13
REMARK    8  A    between atoms: _17  and  _20
REMARK    9  A    between atoms: _20  and  _23
REMARK   10  A    between atoms: _23  and  _24
REMARK                            x       y       z     vdW  Elec       q    Type
REMARK                         _______ _______ _______ _____ _____    ______ ____
ROOT
ATOM      1  N   LIG     1      -4.347   1.763  -2.870  0.00  0.00    -0.217 N 
ATOM      2  H   LIG     1      -5.332   1.982  -2.847  0.00  0.00    +0.176 HD
ENDROOT
BRANCH   1   3
ATOM      3  N   LIG     1      -4.015   0.656  -2.352  0.00  0.00    -0.163 NA
ATOM      4  C   LIG     1      -4.757  -0.203  -1.755  0.00  0.00    +0.149 A 
ATOM      5  C   LIG     1      -4.154  -1.356  -1.285  0.00  0.00    +0.050 A 
ATOM      6  C   LIG     1      -4.945  -2.357  -0.693  0.00  0.00    +0.033 A 
ATOM      7  C   LIG     1      -6.333  -2.163  -0.538  0.00  0.00    +0.121 A 
ATOM      8  C   LIG     1      -6.880  -0.956  -1.023  0.00  0.00    +0.113 A 
ATOM      9  N   LIG     1      -6.070  -0.024  -1.590  0.00  0.00    -0.343 N 
ATOM     10  H   LIG     1      -6.466   0.851  -1.905  0.00  0.00    +0.167 HD
BRANCH   7  11
ATOM     11  S   LIG     1      -7.323  -3.407   0.246  0.00  0.00    +0.060 S 
ATOM     12  O   LIG     1      -6.585  -3.983   1.550  0.00  0.00    -0.153 OA
ATOM     13  O   LIG     1      -7.544  -4.617  -0.784  0.00  0.00    -0.153 OA
BRANCH  11  14
ATOM     14  N   LIG     1      -8.908  -2.797   0.716  0.00  0.00    -0.187 NA
ATOM     15  H   LIG     1      -9.839  -3.048   0.418  0.00  0.00    +0.148 HD
BRANCH  14  16
ATOM     16  C   LIG     1      -8.804  -1.732   1.729  0.00  0.00    +0.077 C 
ATOM     17  C   LIG     1      -9.003  -2.087   3.208  0.00  0.00    +0.022 C 
ATOM     18  C   LIG     1     -10.134  -1.410   2.424  0.00  0.00    +0.022 C 
ENDBRANCH  14  16
ENDBRANCH  11  14
ENDBRANCH   7  11
ENDBRANCH   1   3
BRANCH   1  19
ATOM     19  C   LIG     1      -3.469   2.601  -3.417  0.00  0.00    +0.150 C 
ATOM     20  S   LIG     1      -4.106   3.785  -4.459  0.00  0.00    -0.017 S 
BRANCH  19  21
ATOM     21  N   LIG     1      -2.139   2.600  -3.265  0.00  0.00    -0.325 N 
ATOM     22  H   LIG     1      -1.646   2.807  -4.122  0.00  0.00    +0.148 HD
BRANCH  21  23
ATOM     23  C   LIG     1      -1.421   2.342  -2.052  0.00  0.00    +0.114 C 
BRANCH  23  24
ATOM     24  C   LIG     1       0.031   1.889  -2.324  0.00  0.00    +0.093 C 
BRANCH  24  25
ATOM     25  S   LIG     1       0.784   1.292  -0.773  0.00  0.00    -0.124 S 
BRANCH  25  30
ATOM     26 CL   LIG     1       6.759  -0.138  -2.033  0.00  0.00    -0.084 Cl
ATOM     27  C   LIG     1       5.140   0.248  -1.721  0.00  0.00    +0.041 A 
ATOM     28  C   LIG     1       4.773   1.581  -1.446  0.00  0.00    +0.021 A 
ATOM     29  C   LIG     1       3.429   1.902  -1.177  0.00  0.00    +0.016 A 
ATOM     30  C   LIG     1       2.444   0.893  -1.178  0.00  0.00    +0.008 A 
ATOM     31  C   LIG     1       2.811  -0.439  -1.462  0.00  0.00    +0.016 A 
ATOM     32  C   LIG     1       4.155  -0.762  -1.732  0.00  0.00    +0.021 A 
ENDBRANCH  25  30
ENDBRANCH  24  25
ENDBRANCH  23  24
ENDBRANCH  21  23
ENDBRANCH  19  21
ENDBRANCH   1  19
TORSDOF 10
