REMARK    Small molecule (ligand)
REMARK    Compound: Z806452044_1_T4
REMARK    SMILES: FC1=CC2=NC(S)=NC2C(=C1)C(=O)NCC1=CC(NC(=O)CCN2CCOCC2)=CC=C1
REMARK    The ligand was originally not a salt, therefore no desalting was carried out.
REMARK    The tautomeric state was generated by cxcalc version 18.20.0 of ChemAxons JChem Suite.
REMARK    Protonation state was generated at pH 7.4 by cxcalc version 18.20.0 of ChemAxons JChem Suite.
REMARK    Generation of the 3D conformation was carried out by molconvert version 18.20.0 of ChemAxons JChem Suite.
REMARK    Generation of the the target format file (pdbqt) was carried out by Open Babel version 2.4.1.
REMARK    Created on Tue Nov 13 12:59:55 EST 2018
REMARK  8 active torsions:
REMARK  status: ('A' for Active; 'I' for Inactive)
REMARK    1  A    between atoms: _6  and  _7
REMARK    2  A    between atoms: _10  and  _12
REMARK    3  A    between atoms: _14  and  _15
REMARK    4  A    between atoms: _15  and  _16
REMARK    5  A    between atoms: _18  and  _19
REMARK    6  A    between atoms: _20  and  _22
REMARK    7  A    between atoms: _22  and  _23
REMARK    8  A    between atoms: _23  and  _24
REMARK                            x       y       z     vdW  Elec       q    Type
REMARK                         _______ _______ _______ _____ _____    ______ ____
ROOT
ATOM      1  C   LIG     1       2.525  -2.787   0.398  0.00  0.00    -0.029 A 
ATOM      2  C   LIG     1       3.356  -2.780   1.546  0.00  0.00    +0.005 A 
ATOM      3  C   LIG     1       4.737  -3.019   1.437  0.00  0.00    +0.002 A 
ATOM      4  C   LIG     1       5.308  -3.279   0.180  0.00  0.00    +0.023 A 
ATOM      5  C   LIG     1       4.502  -3.306  -0.975  0.00  0.00    +0.034 A 
ATOM      6  C   LIG     1       3.114  -3.061  -0.859  0.00  0.00    +0.028 A 
ENDROOT
BRANCH   5   7
ATOM      7  N   LIG     1       5.088  -3.637  -2.157  0.00  0.00    -0.285 N 
ATOM      8  H   LIG     1       5.608  -4.503  -2.159  0.00  0.00    +0.155 HD
ATOM      9  C   LIG     1       5.064  -2.955  -3.335  0.00  0.00    +0.218 C 
ATOM     10  O   LIG     1       5.627  -3.529  -4.296  0.00  0.00    -0.275 OA
BRANCH   9  11
ATOM     11  C   LIG     1       4.509  -1.596  -3.561  0.00  0.00    +0.111 C 
BRANCH  11  12
ATOM     12  C   LIG     1       5.644  -0.560  -3.785  0.00  0.00    +0.094 C 
BRANCH  12  13
ATOM     13  N   LIG     1       5.164   0.857  -3.895  0.00  0.00    -0.298 NA
ATOM     14  C   LIG     1       4.743   1.468  -2.590  0.00  0.00    +0.112 C 
ATOM     15  C   LIG     1       4.212   2.905  -2.809  0.00  0.00    +0.175 C 
ATOM     16  O   LIG     1       5.191   3.716  -3.488  0.00  0.00    -0.377 OA
ATOM     17  C   LIG     1       5.591   3.175  -4.762  0.00  0.00    +0.175 C 
ATOM     18  C   LIG     1       6.146   1.738  -4.606  0.00  0.00    +0.112 C 
ENDBRANCH  12  13
ENDBRANCH  11  12
ENDBRANCH   9  11
ENDBRANCH   5   7
BRANCH   1  19
ATOM     19  C   LIG     1       1.068  -2.516   0.515  0.00  0.00    +0.140 C 
BRANCH  19  21
ATOM     20  C   LIG     1      -0.348  -0.412   0.279  0.00  0.00    +0.242 C 
ATOM     21  N   LIG     1       0.820  -1.129   0.322  0.00  0.00    -0.307 N 
ATOM     22  H   LIG     1       1.629  -0.540   0.190  0.00  0.00    +0.149 HD
ATOM     23  O   LIG     1      -0.057   0.803   0.159  0.00  0.00    -0.270 OA
BRANCH  20  27
ATOM     24  F   LIG     1      -4.876   0.760  -0.191  0.00  0.00    -0.206 F 
ATOM     25  C   LIG     1      -4.036  -0.144   0.138  0.00  0.00    +0.122 C 
ATOM     26  C   LIG     1      -2.692   0.162   0.205  0.00  0.00    +0.048 C 
ATOM     27  C   LIG     1      -1.719  -0.793   0.319  0.00  0.00    +0.042 C 
ATOM     28  C   LIG     1      -2.195  -2.204   0.363  0.00  0.00    +0.166 C 
ATOM     29  N   LIG     1      -1.690  -3.104   1.279  0.00  0.00    -0.216 NA
ATOM     30  C   LIG     1      -2.607  -3.656   1.974  0.00  0.00    +0.167 C 
ATOM     31  N   LIG     1      -3.754  -3.176   1.713  0.00  0.00    -0.246 NA
ATOM     32  C   LIG     1      -3.578  -2.300   0.804  0.00  0.00    +0.140 C 
ATOM     33  C   LIG     1      -4.489  -1.384   0.414  0.00  0.00    +0.046 C 
BRANCH  30  34
ATOM     34  S   LIG     1      -2.306  -4.849   3.150  0.00  0.00    -0.107 S 
ATOM     35  H   LIG     1      -2.439  -4.324   4.354  0.00  0.00    +0.110 HD
ENDBRANCH  30  34
ENDBRANCH  20  27
ENDBRANCH  19  21
ENDBRANCH   1  19
TORSDOF 8
