REMARK    Small molecule (ligand)
REMARK    Compound: Z830003048_1_T1
REMARK    SMILES: CC(C)(C)NS(=O)(=O)C1=CNC(C=C1)=NNC(=S)NC1CCN(CC2=CC=CC=C2)CC1
REMARK    The ligand was originally not a salt, therefore no desalting was carried out.
REMARK    The tautomeric state was generated by cxcalc version 18.20.0 of ChemAxons JChem Suite.
REMARK    Protonation state was generated at pH 7.4 by cxcalc version 18.20.0 of ChemAxons JChem Suite.
REMARK    Generation of the 3D conformation was carried out by molconvert version 18.20.0 of ChemAxons JChem Suite.
REMARK    Generation of the the target format file (pdbqt) was carried out by Open Babel version 2.4.1.
REMARK    Created on Tue Nov 13 12:59:48 EST 2018
REMARK  12 active torsions:
REMARK  status: ('A' for Active; 'I' for Inactive)
REMARK    1  A    between atoms: _1  and  _2
REMARK    2  A    between atoms: _2  and  _3
REMARK    3  A    between atoms: _2  and  _4
REMARK    4  A    between atoms: _2  and  _5
REMARK    5  A    between atoms: _5  and  _6
REMARK    6  A    between atoms: _6  and  _9
REMARK    7  A    between atoms: _15  and  _16
REMARK    8  A    between atoms: _16  and  _17
REMARK    9  A    between atoms: _17  and  _19
REMARK   10  A    between atoms: _19  and  _20
REMARK   11  A    between atoms: _23  and  _24
REMARK   12  A    between atoms: _24  and  _25
REMARK                            x       y       z     vdW  Elec       q    Type
REMARK                         _______ _______ _______ _____ _____    ______ ____
ROOT
ATOM      1  N   LIG     1      -0.629  -2.793  -4.834  0.00  0.00    -0.217 N 
ATOM      2  H   LIG     1      -1.093  -3.059  -5.690  0.00  0.00    +0.176 HD
ENDROOT
BRANCH   1   7
ATOM      3  C   LIG     1      -5.367  -2.178  -3.533  0.00  0.00    +0.121 A 
ATOM      4  C   LIG     1      -4.562  -2.209  -2.374  0.00  0.00    +0.033 A 
ATOM      5  C   LIG     1      -3.202  -2.556  -2.476  0.00  0.00    +0.050 A 
ATOM      6  C   LIG     1      -2.651  -2.752  -3.729  0.00  0.00    +0.149 A 
ATOM      7  N   LIG     1      -1.373  -2.711  -3.818  0.00  0.00    -0.163 NA
ATOM      8  N   LIG     1      -3.446  -2.874  -4.795  0.00  0.00    -0.343 N 
ATOM      9  H   LIG     1      -3.036  -3.214  -5.653  0.00  0.00    +0.167 HD
ATOM     10  C   LIG     1      -4.770  -2.559  -4.753  0.00  0.00    +0.113 A 
BRANCH   3  11
ATOM     11  S   LIG     1      -7.072  -1.709  -3.442  0.00  0.00    +0.060 S 
ATOM     12  O   LIG     1      -7.727  -2.376  -2.136  0.00  0.00    -0.153 OA
ATOM     13  O   LIG     1      -7.906  -2.230  -4.710  0.00  0.00    -0.153 OA
BRANCH  11  14
ATOM     14  N   LIG     1      -7.289   0.039  -3.241  0.00  0.00    -0.185 NA
ATOM     15  H   LIG     1      -7.659   0.523  -2.436  0.00  0.00    +0.149 HD
BRANCH  14  17
ATOM     16  C   LIG     1      -5.384   1.261  -4.360  0.00  0.00    +0.029 C 
ATOM     17  C   LIG     1      -6.927   1.029  -4.298  0.00  0.00    +0.032 C 
ATOM     18  C   LIG     1      -7.471   0.646  -5.709  0.00  0.00    +0.029 C 
ATOM     19  C   LIG     1      -7.634   2.345  -3.841  0.00  0.00    +0.029 C 
ENDBRANCH  14  17
ENDBRANCH  11  14
ENDBRANCH   3  11
ENDBRANCH   1   7
BRANCH   1  20
ATOM     20  C   LIG     1       0.679  -2.552  -4.811  0.00  0.00    +0.150 C 
ATOM     21  S   LIG     1       1.535  -3.113  -6.169  0.00  0.00    -0.017 S 
BRANCH  20  22
ATOM     22  N   LIG     1       1.407  -1.897  -3.894  0.00  0.00    -0.322 N 
ATOM     23  H   LIG     1       2.395  -2.043  -4.050  0.00  0.00    +0.148 HD
BRANCH  22  24
ATOM     24  C   LIG     1       0.983  -1.072  -2.795  0.00  0.00    +0.074 C 
ATOM     25  C   LIG     1       1.832  -1.403  -1.537  0.00  0.00    +0.037 C 
ATOM     26  C   LIG     1       1.484  -0.438  -0.372  0.00  0.00    +0.086 C 
ATOM     27  N   LIG     1       1.634   0.997  -0.776  0.00  0.00    -0.298 NA
ATOM     28  C   LIG     1       0.797   1.343  -1.970  0.00  0.00    +0.086 C 
ATOM     29  C   LIG     1       1.123   0.426  -3.181  0.00  0.00    +0.037 C 
BRANCH  27  30
ATOM     30  C   LIG     1       2.967   1.689  -0.703  0.00  0.00    +0.119 C 
BRANCH  30  31
ATOM     31  C   LIG     1       4.139   0.947  -0.149  0.00  0.00    -0.033 A 
ATOM     32  C   LIG     1       5.111   0.385  -1.014  0.00  0.00    +0.005 A 
ATOM     33  C   LIG     1       6.229  -0.297  -0.502  0.00  0.00    +0.000 A 
ATOM     34  C   LIG     1       6.396  -0.425   0.888  0.00  0.00    +0.000 A 
ATOM     35  C   LIG     1       5.444   0.127   1.763  0.00  0.00    +0.000 A 
ATOM     36  C   LIG     1       4.321   0.803   1.248  0.00  0.00    +0.005 A 
ENDBRANCH  30  31
ENDBRANCH  27  30
ENDBRANCH  22  24
ENDBRANCH  20  22
ENDBRANCH   1  20
TORSDOF 9
