REMARK    Small molecule (ligand)
REMARK    Compound: PV-001957552011_1_T1
REMARK    SMILES: COc1ccc(C[C@H](CO)CNC(=O)NC2CCN(CC2)c2ccc(cc2)N(C)C)cc1O
REMARK    The ligand was originally not a salt, therefore no desalting was carried out.
REMARK    The tautomeric state was generated by cxcalc version 18.20.0 of ChemAxons JChem Suite.
REMARK    Protonation state was generated at pH 7.4 by cxcalc version 18.20.0 of ChemAxons JChem Suite.
REMARK    Generation of the 3D conformation was carried out by molconvert version 18.20.0 of ChemAxons JChem Suite.
REMARK    Generation of the the target format file (pdbqt) was carried out by Open Babel version 2.4.1.
REMARK    Created on Tue Nov 13 13:45:12 EST 2018
REMARK  14 active torsions:
REMARK  status: ('A' for Active; 'I' for Inactive)
REMARK    1  A    between atoms: _1  and  _2
REMARK    2  A    between atoms: _2  and  _3
REMARK    3  A    between atoms: _6  and  _7
REMARK    4  A    between atoms: _7  and  _8
REMARK    5  A    between atoms: _8  and  _9
REMARK    6  A    between atoms: _8  and  _11
REMARK    7  A    between atoms: _9  and  _10
REMARK    8  A    between atoms: _11  and  _12
REMARK    9  A    between atoms: _15  and  _16
REMARK   10  A    between atoms: _19  and  _22
REMARK   11  A    between atoms: _25  and  _28
REMARK   12  A    between atoms: _28  and  _29
REMARK   13  A    between atoms: _28  and  _30
REMARK   14  A    between atoms: _32  and  _33
REMARK                            x       y       z     vdW  Elec       q    Type
REMARK                         _______ _______ _______ _____ _____    ______ ____
ROOT
ATOM      1  N   LIG     1      -0.134   1.221   6.608  0.00  0.00    -0.299 N 
ATOM      2  H   LIG     1      -1.010   1.346   7.095  0.00  0.00    +0.150 HD
ATOM      3  C   LIG     1       0.377  -0.036   6.715  0.00  0.00    +0.300 C 
ATOM      4  N   LIG     1      -0.379  -0.938   7.396  0.00  0.00    -0.296 N 
ATOM      5  H   LIG     1      -1.265  -0.568   7.708  0.00  0.00    +0.151 HD
ATOM      6  O   LIG     1       1.481  -0.350   6.210  0.00  0.00    -0.253 OA
ENDROOT
BRANCH   4   7
ATOM      7  C   LIG     1      -0.036  -2.298   7.690  0.00  0.00    +0.077 C 
ATOM      8  C   LIG     1      -0.962  -2.777   8.843  0.00  0.00    +0.041 C 
ATOM      9  C   LIG     1      -0.794  -4.285   9.160  0.00  0.00    +0.107 C 
ATOM     10  N   LIG     1      -0.800  -5.112   7.965  0.00  0.00    -0.330 N 
ATOM     11  C   LIG     1       0.093  -4.711   6.891  0.00  0.00    +0.107 C 
ATOM     12  C   LIG     1      -0.180  -3.245   6.464  0.00  0.00    +0.041 C 
BRANCH  10  13
ATOM     13  C   LIG     1      -1.593  -6.249   7.879  0.00  0.00    +0.030 A 
ATOM     14  C   LIG     1      -2.258  -6.612   6.687  0.00  0.00    +0.025 A 
ATOM     15  C   LIG     1      -3.052  -7.769   6.612  0.00  0.00    +0.025 A 
ATOM     16  C   LIG     1      -3.262  -8.615   7.734  0.00  0.00    +0.029 A 
ATOM     17  C   LIG     1      -2.573  -8.252   8.922  0.00  0.00    +0.025 A 
ATOM     18  C   LIG     1      -1.767  -7.103   8.992  0.00  0.00    +0.025 A 
BRANCH  16  19
ATOM     19  N   LIG     1      -4.107  -9.734   7.676  0.00  0.00    -0.336 N 
ATOM     20  C   LIG     1      -4.642 -10.329   8.885  0.00  0.00    +0.129 C 
ATOM     21  C   LIG     1      -4.489 -10.318   6.405  0.00  0.00    +0.129 C 
ENDBRANCH  16  19
ENDBRANCH  10  13
ENDBRANCH   4   7
BRANCH   1  22
ATOM     22  C   LIG     1       0.442   2.322   5.897  0.00  0.00    +0.111 C 
BRANCH  22  23
ATOM     23  C   LIG     1      -0.656   3.327   5.412  0.00  0.00    +0.036 C 
BRANCH  23  24
ATOM     24  C   LIG     1      -1.799   2.668   4.564  0.00  0.00    +0.042 C 
BRANCH  24  28
ATOM     25  C   LIG     1      -0.446   0.583   1.070  0.00  0.00    +0.161 A 
ATOM     26  C   LIG     1      -0.657  -0.200   2.268  0.00  0.00    +0.159 A 
ATOM     27  C   LIG     1      -1.124   0.520   3.430  0.00  0.00    +0.052 A 
ATOM     28  C   LIG     1      -1.333   1.928   3.353  0.00  0.00    -0.043 A 
ATOM     29  C   LIG     1      -1.108   2.642   2.143  0.00  0.00    +0.007 A 
ATOM     30  C   LIG     1      -0.659   2.010   0.971  0.00  0.00    +0.049 A 
BRANCH  25  32
ATOM     31  C   LIG     1       1.373  -0.128  -0.232  0.00  0.00    +0.277 C 
ATOM     32  O   LIG     1      -0.054  -0.078  -0.063  0.00  0.00    -0.491 OA
ENDBRANCH  25  32
BRANCH  26  33
ATOM     33  O   LIG     1      -0.434  -1.530   2.329  0.00  0.00    -0.503 OA
ATOM     34  H   LIG     1      -0.387  -1.805   3.247  0.00  0.00    +0.292 HD
ENDBRANCH  26  33
ENDBRANCH  24  28
ENDBRANCH  23  24
BRANCH  23  35
ATOM     35  C   LIG     1      -0.026   4.567   4.711  0.00  0.00    +0.161 C 
BRANCH  35  36
ATOM     36  O   LIG     1      -1.028   5.503   4.319  0.00  0.00    -0.395 OA
ATOM     37  H   LIG     1      -1.435   5.883   5.101  0.00  0.00    +0.209 HD
ENDBRANCH  35  36
ENDBRANCH  23  35
ENDBRANCH  22  23
ENDBRANCH   1  22
TORSDOF 11
