REMARK    Small molecule (ligand)
REMARK    Compound: PV-001921218769_1_T1
REMARK    SMILES: OCC(CO)(NCC(=O)Nc1sc2CCCCc2c1C(=O)c1ccccc1)C(F)(F)F
REMARK    The ligand was originally not a salt, therefore no desalting was carried out.
REMARK    The tautomeric state was generated by cxcalc version 18.20.0 of ChemAxons JChem Suite.
REMARK    Protonation state was generated at pH 7.4 by cxcalc version 18.20.0 of ChemAxons JChem Suite.
REMARK    Generation of the 3D conformation was carried out by molconvert version 18.20.0 of ChemAxons JChem Suite.
REMARK    Generation of the the target format file (pdbqt) was carried out by Open Babel version 2.4.1.
REMARK    Created on Tue Nov 13 13:45:29 EST 2018
REMARK  11 active torsions:
REMARK  status: ('A' for Active; 'I' for Inactive)
REMARK    1  A    between atoms: _1  and  _2
REMARK    2  A    between atoms: _2  and  _3
REMARK    3  A    between atoms: _3  and  _4
REMARK    4  A    between atoms: _3  and  _6
REMARK    5  A    between atoms: _3  and  _28
REMARK    6  A    between atoms: _4  and  _5
REMARK    7  A    between atoms: _6  and  _7
REMARK    8  A    between atoms: _7  and  _8
REMARK    9  A    between atoms: _10  and  _11
REMARK   10  A    between atoms: _19  and  _20
REMARK   11  A    between atoms: _20  and  _22
REMARK                            x       y       z     vdW  Elec       q    Type
REMARK                         _______ _______ _______ _____ _____    ______ ____
ROOT
ATOM      1  C   LIG     1      -3.828  -0.463   1.165  0.00  0.00    +0.231 C 
ATOM      2  N   LIG     1      -4.625  -0.497   0.063  0.00  0.00    -0.278 N 
ATOM      3  H   LIG     1      -4.235  -0.946  -0.753  0.00  0.00    +0.155 HD
ATOM      4  O   LIG     1      -4.224  -0.079   2.292  0.00  0.00    -0.274 OA
ENDROOT
BRANCH   2   5
ATOM      5  C   LIG     1      -5.884   0.001  -0.072  0.00  0.00    +0.083 A 
ATOM      6  C   LIG     1      -6.797  -0.224  -1.135  0.00  0.00    +0.054 A 
ATOM      7  C   LIG     1      -7.945   0.638  -1.084  0.00  0.00    -0.024 A 
ATOM      8  C   LIG     1      -9.052   0.714  -2.088  0.00  0.00    +0.037 C 
ATOM      9  C   LIG     1     -10.024   1.921  -1.929  0.00  0.00    +0.005 C 
ATOM     10  C   LIG     1     -10.362   2.204  -0.445  0.00  0.00    +0.005 C 
ATOM     11  C   LIG     1      -9.071   2.451   0.375  0.00  0.00    +0.043 C 
ATOM     12  C   LIG     1      -8.013   1.483   0.041  0.00  0.00    -0.005 A 
ATOM     13  S   LIG     1      -6.586   1.200   0.999  0.00  0.00    -0.077 S 
BRANCH   6  14
ATOM     14  C   LIG     1      -6.563  -1.204  -2.167  0.00  0.00    +0.196 C 
ATOM     15  O   LIG     1      -7.284  -1.248  -3.190  0.00  0.00    -0.287 OA
BRANCH  14  16
ATOM     16  C   LIG     1      -5.555  -2.203  -2.150  0.00  0.00    +0.022 A 
ATOM     17  C   LIG     1      -5.512  -3.190  -1.136  0.00  0.00    +0.012 A 
ATOM     18  C   LIG     1      -4.503  -4.172  -1.133  0.00  0.00    +0.001 A 
ATOM     19  C   LIG     1      -3.541  -4.198  -2.160  0.00  0.00    +0.000 A 
ATOM     20  C   LIG     1      -3.586  -3.239  -3.188  0.00  0.00    +0.001 A 
ATOM     21  C   LIG     1      -4.581  -2.242  -3.176  0.00  0.00    +0.012 A 
ENDBRANCH  14  16
ENDBRANCH   6  14
ENDBRANCH   2   5
BRANCH   1  22
ATOM     22  C   LIG     1      -2.415  -0.841   1.031  0.00  0.00    +0.178 C 
BRANCH  22  23
ATOM     23  N   LIG     1      -1.630   0.418   1.024  0.00  0.00    -0.292 NA
ATOM     24  H   LIG     1      -2.116   1.298   1.120  0.00  0.00    +0.123 HD
BRANCH  23  25
ATOM     25  C   LIG     1      -0.140   0.398   0.876  0.00  0.00    +0.162 C 
BRANCH  25  26
ATOM     26  C   LIG     1       0.565  -0.298   2.099  0.00  0.00    +0.412 C 
ATOM     27  F   LIG     1       1.928  -0.116   2.082  0.00  0.00    -0.168 F 
ATOM     28  F   LIG     1       0.107   0.192   3.299  0.00  0.00    -0.168 F 
ATOM     29  F   LIG     1       0.375  -1.659   2.129  0.00  0.00    -0.168 F 
ENDBRANCH  25  26
BRANCH  25  30
ATOM     30  C   LIG     1       0.270   1.910   0.813  0.00  0.00    +0.189 C 
BRANCH  30  31
ATOM     31  O   LIG     1      -0.166   2.650   1.950  0.00  0.00    -0.393 OA
ATOM     32  H   LIG     1      -0.432   2.043   2.644  0.00  0.00    +0.209 HD
ENDBRANCH  30  31
ENDBRANCH  25  30
BRANCH  25  33
ATOM     33  C   LIG     1       0.283  -0.281  -0.471  0.00  0.00    +0.189 C 
BRANCH  33  34
ATOM     34  O   LIG     1      -0.434   0.243  -1.585  0.00  0.00    -0.393 OA
ATOM     35  H   LIG     1      -0.775  -0.481  -2.115  0.00  0.00    +0.209 HD
ENDBRANCH  33  34
ENDBRANCH  25  33
ENDBRANCH  23  25
ENDBRANCH  22  23
ENDBRANCH   1  22
TORSDOF 11
