REMARK    Small molecule (ligand)
REMARK    Compound: PV-001943185629_2_T1
REMARK    SMILES: OC[C@@H](C[C@H](O)c1ccccc1)NC(=O)Nc1ccc2n(CCN3CCOCC3)ccc2c1
REMARK    The ligand was originally not a salt, therefore no desalting was carried out.
REMARK    The tautomeric state was generated by cxcalc version 18.20.0 of ChemAxons JChem Suite.
REMARK    Protonation state was generated at pH 7.4 by cxcalc version 18.20.0 of ChemAxons JChem Suite.
REMARK    Generation of the 3D conformation was carried out by molconvert version 18.20.0 of ChemAxons JChem Suite.
REMARK    Generation of the the target format file (pdbqt) was carried out by Open Babel version 2.4.1.
REMARK    Created on Tue Nov 13 13:45:23 EST 2018
REMARK  11 active torsions:
REMARK  status: ('A' for Active; 'I' for Inactive)
REMARK    1  A    between atoms: _1  and  _2
REMARK    2  A    between atoms: _2  and  _3
REMARK    3  A    between atoms: _3  and  _4
REMARK    4  A    between atoms: _3  and  _13
REMARK    5  A    between atoms: _4  and  _5
REMARK    6  A    between atoms: _5  and  _6
REMARK    7  A    between atoms: _5  and  _7
REMARK    8  A    between atoms: _16  and  _17
REMARK    9  A    between atoms: _21  and  _22
REMARK   10  A    between atoms: _22  and  _23
REMARK   11  A    between atoms: _23  and  _24
REMARK                            x       y       z     vdW  Elec       q    Type
REMARK                         _______ _______ _______ _____ _____    ______ ____
ROOT
ATOM      1  N   LIG     1      -7.906  -7.089   0.332  0.00  0.00    -0.294 N 
ATOM      2  H   LIG     1      -8.794  -6.666   0.561  0.00  0.00    +0.151 HD
ATOM      3  C   LIG     1      -6.915  -6.178   0.136  0.00  0.00    +0.304 C 
ATOM      4  N   LIG     1      -7.238  -4.862   0.282  0.00  0.00    -0.269 N 
ATOM      5  H   LIG     1      -8.181  -4.685   0.597  0.00  0.00    +0.156 HD
ATOM      6  O   LIG     1      -5.768  -6.557  -0.195  0.00  0.00    -0.252 OA
ENDROOT
BRANCH   4   7
ATOM      7  C   LIG     1      -6.463  -3.754   0.061  0.00  0.00    +0.035 A 
ATOM      8  C   LIG     1      -7.155  -2.535  -0.155  0.00  0.00    +0.033 A 
ATOM      9  C   LIG     1      -6.425  -1.390  -0.522  0.00  0.00    +0.002 A 
ATOM     10  C   LIG     1      -6.836  -0.101  -0.827  0.00  0.00    +0.027 A 
ATOM     11  C   LIG     1      -5.690   0.593  -1.203  0.00  0.00    +0.087 A 
ATOM     12  N   LIG     1      -4.615  -0.224  -1.134  0.00  0.00    -0.345 N 
ATOM     13  C   LIG     1      -5.040  -1.424  -0.677  0.00  0.00    +0.049 A 
ATOM     14  C   LIG     1      -4.327  -2.601  -0.387  0.00  0.00    +0.028 A 
ATOM     15  C   LIG     1      -5.041  -3.750   0.006  0.00  0.00    +0.025 A 
BRANCH  12  16
ATOM     16  C   LIG     1      -3.282   0.112  -1.547  0.00  0.00    +0.137 C 
BRANCH  16  17
ATOM     17  C   LIG     1      -2.299   0.353  -0.370  0.00  0.00    +0.106 C 
BRANCH  17  18
ATOM     18  N   LIG     1      -0.864   0.299  -0.794  0.00  0.00    -0.296 NA
ATOM     19  C   LIG     1      -0.458   1.318  -1.814  0.00  0.00    +0.112 C 
ATOM     20  C   LIG     1       0.997   1.059  -2.270  0.00  0.00    +0.175 C 
ATOM     21  O   LIG     1       1.895   1.017  -1.143  0.00  0.00    -0.377 OA
ATOM     22  C   LIG     1       1.531   0.030  -0.158  0.00  0.00    +0.175 C 
ATOM     23  C   LIG     1       0.090   0.259   0.359  0.00  0.00    +0.112 C 
ENDBRANCH  17  18
ENDBRANCH  16  17
ENDBRANCH  12  16
ENDBRANCH   4   7
BRANCH   1  24
ATOM     24  CA  LIG     1      -7.799  -8.523   0.245  0.00  0.00    +0.103 C 
BRANCH  24  25
ATOM     25  C   LIG     1      -7.231  -9.033  -1.113  0.00  0.00    +0.178 C 
BRANCH  25  26
ATOM     26  O   LIG     1      -7.936  -8.441  -2.200  0.00  0.00    -0.393 OA
ATOM     27  H   LIG     1      -8.299  -9.131  -2.760  0.00  0.00    +0.209 HD
ENDBRANCH  25  26
ENDBRANCH  24  25
BRANCH  24  28
ATOM     28  C   LIG     1      -7.038  -9.102   1.480  0.00  0.00    +0.060 C 
BRANCH  28  29
ATOM     29  C   LIG     1      -7.796  -8.917   2.832  0.00  0.00    +0.146 C 
BRANCH  29  30
ATOM     30  C   LIG     1      -8.992  -9.806   2.950  0.00  0.00    -0.019 A 
ATOM     31  C   LIG     1      -8.847 -11.201   3.156  0.00  0.00    +0.006 A 
ATOM     32  C   LIG     1      -9.974 -12.039   3.248  0.00  0.00    +0.000 A 
ATOM     33  C   LIG     1     -11.266 -11.495   3.135  0.00  0.00    +0.000 A 
ATOM     34  C   LIG     1     -11.430 -10.115   2.928  0.00  0.00    +0.000 A 
ATOM     35  C   LIG     1     -10.301  -9.277   2.842  0.00  0.00    +0.006 A 
ENDBRANCH  29  30
BRANCH  29  36
ATOM     36  O   LIG     1      -6.925  -9.161   3.935  0.00  0.00    -0.387 OA
ATOM     37  H   LIG     1      -6.826 -10.108   4.061  0.00  0.00    +0.210 HD
ENDBRANCH  29  36
ENDBRANCH  28  29
ENDBRANCH  24  28
ENDBRANCH   1  24
TORSDOF 11
