REMARK    Small molecule (ligand)
REMARK    Compound: PV-001921174231_2_T1
REMARK    SMILES: COCCNC(=O)c1c(NC(=O)CN[C@@]2(CO)CCCC(C)(C)C2)sc2CCCCc12
REMARK    The ligand was originally not a salt, therefore no desalting was carried out.
REMARK    The tautomeric state was generated by cxcalc version 18.20.0 of ChemAxons JChem Suite.
REMARK    Protonation state was generated at pH 7.4 by cxcalc version 18.20.0 of ChemAxons JChem Suite.
REMARK    Generation of the 3D conformation was carried out by molconvert version 18.20.0 of ChemAxons JChem Suite.
REMARK    Generation of the the target format file (pdbqt) was carried out by Open Babel version 2.4.1.
REMARK    Created on Tue Nov 13 13:45:31 EST 2018
REMARK  13 active torsions:
REMARK  status: ('A' for Active; 'I' for Inactive)
REMARK    1  A    between atoms: _1  and  _2
REMARK    2  A    between atoms: _2  and  _3
REMARK    3  A    between atoms: _3  and  _4
REMARK    4  A    between atoms: _4  and  _5
REMARK    5  A    between atoms: _6  and  _8
REMARK    6  A    between atoms: _9  and  _10
REMARK    7  A    between atoms: _11  and  _13
REMARK    8  A    between atoms: _13  and  _14
REMARK    9  A    between atoms: _14  and  _15
REMARK   10  A    between atoms: _15  and  _16
REMARK   11  A    between atoms: _16  and  _17
REMARK   12  A    between atoms: _21  and  _22
REMARK   13  A    between atoms: _21  and  _23
REMARK                            x       y       z     vdW  Elec       q    Type
REMARK                         _______ _______ _______ _____ _____    ______ ____
ROOT
ATOM      1  N   LIG     1      -3.180   0.089   5.223  0.00  0.00    -0.278 N 
ATOM      2  H   LIG     1      -2.585   0.877   5.007  0.00  0.00    +0.155 HD
ATOM      3  C   LIG     1      -2.715  -0.838   6.110  0.00  0.00    +0.231 C 
ATOM      4  O   LIG     1      -3.111  -2.029   6.060  0.00  0.00    -0.274 OA
ENDROOT
BRANCH   1  13
ATOM      5  C   LIG     1      -4.819   0.548   3.367  0.00  0.00    +0.069 A 
ATOM      6  C   LIG     1      -6.247   0.622   3.224  0.00  0.00    -0.023 A 
ATOM      7  C   LIG     1      -6.993   1.261   2.092  0.00  0.00    +0.037 C 
ATOM      8  C   LIG     1      -8.524   1.430   2.336  0.00  0.00    +0.005 C 
ATOM      9  C   LIG     1      -9.147   0.191   3.023  0.00  0.00    +0.005 C 
ATOM     10  C   LIG     1      -8.445  -0.089   4.376  0.00  0.00    +0.043 C 
ATOM     11  C   LIG     1      -6.977   0.024   4.267  0.00  0.00    -0.004 A 
ATOM     12  S   LIG     1      -5.828  -0.558   5.444  0.00  0.00    -0.077 S 
ATOM     13  C   LIG     1      -4.397   0.021   4.610  0.00  0.00    +0.084 A 
BRANCH   5  16
ATOM     14  N   LIG     1      -2.599   0.508   2.330  0.00  0.00    -0.309 N 
ATOM     15  H   LIG     1      -2.314  -0.067   3.109  0.00  0.00    +0.149 HD
ATOM     16  C   LIG     1      -3.893   0.952   2.358  0.00  0.00    +0.247 C 
ATOM     17  O   LIG     1      -4.270   1.699   1.425  0.00  0.00    -0.270 OA
BRANCH  14  18
ATOM     18  C   LIG     1      -1.679   0.821   1.278  0.00  0.00    +0.132 C 
BRANCH  18  19
ATOM     19  C   LIG     1      -0.266   0.247   1.505  0.00  0.00    +0.178 C 
BRANCH  19  21
ATOM     20  C   LIG     1       1.934   0.269   0.493  0.00  0.00    +0.194 C 
ATOM     21  O   LIG     1       0.553   0.651   0.388  0.00  0.00    -0.381 OA
ENDBRANCH  19  21
ENDBRANCH  18  19
ENDBRANCH  14  18
ENDBRANCH   5  16
ENDBRANCH   1  13
BRANCH   3  22
ATOM     22  C   LIG     1      -1.849  -0.429   7.236  0.00  0.00    +0.178 C 
BRANCH  22  23
ATOM     23  N   LIG     1      -0.505   0.076   6.865  0.00  0.00    -0.301 NA
ATOM     24  H   LIG     1      -0.190  -0.012   5.909  0.00  0.00    +0.123 HD
BRANCH  23  25
ATOM     25  C   LIG     1       0.369   0.714   7.921  0.00  0.00    +0.043 C 
ATOM     26  C   LIG     1       1.817   0.237   7.531  0.00  0.00    +0.030 C 
ATOM     27  C   LIG     1       2.991   0.457   8.565  0.00  0.00    -0.033 C 
ATOM     28  C   LIG     1       4.204  -0.430   8.114  0.00  0.00    +0.011 C 
ATOM     29  C   LIG     1       3.511   1.935   8.586  0.00  0.00    +0.011 C 
ATOM     30  C   LIG     1       2.541   0.006   9.998  0.00  0.00    +0.006 C 
ATOM     31  C   LIG     1       1.168   0.577  10.433  0.00  0.00    +0.002 C 
ATOM     32  C   LIG     1       0.066   0.244   9.395  0.00  0.00    +0.024 C 
BRANCH  25  33
ATOM     33  C   LIG     1       0.193   2.265   7.774  0.00  0.00    +0.178 C 
BRANCH  33  34
ATOM     34  O   LIG     1      -1.169   2.665   7.687  0.00  0.00    -0.393 OA
ATOM     35  H   LIG     1      -1.529   2.771   8.571  0.00  0.00    +0.209 HD
ENDBRANCH  33  34
ENDBRANCH  25  33
ENDBRANCH  23  25
ENDBRANCH  22  23
ENDBRANCH   3  22
TORSDOF 10
