REMARK    Small molecule (ligand)
REMARK    Compound: PV-001956689295_2_T1
REMARK    SMILES: COc1ccc(C[C@@H](CO)CNC(=O)NCC2(CCCCC2)N2CCSCC2)cc1O
REMARK    The ligand was originally not a salt, therefore no desalting was carried out.
REMARK    The tautomeric state was generated by cxcalc version 18.20.0 of ChemAxons JChem Suite.
REMARK    Protonation state was generated at pH 7.4 by cxcalc version 18.20.0 of ChemAxons JChem Suite.
REMARK    Generation of the 3D conformation was carried out by molconvert version 18.20.0 of ChemAxons JChem Suite.
REMARK    Generation of the the target format file (pdbqt) was carried out by Open Babel version 2.4.1.
REMARK    Created on Tue Nov 13 13:45:14 EST 2018
REMARK  12 active torsions:
REMARK  status: ('A' for Active; 'I' for Inactive)
REMARK    1  A    between atoms: _1  and  _2
REMARK    2  A    between atoms: _2  and  _3
REMARK    3  A    between atoms: _6  and  _7
REMARK    4  A    between atoms: _7  and  _8
REMARK    5  A    between atoms: _8  and  _9
REMARK    6  A    between atoms: _8  and  _11
REMARK    7  A    between atoms: _9  and  _10
REMARK    8  A    between atoms: _11  and  _12
REMARK    9  A    between atoms: _15  and  _16
REMARK   10  A    between atoms: _16  and  _17
REMARK   11  A    between atoms: _17  and  _23
REMARK   12  A    between atoms: _30  and  _31
REMARK                            x       y       z     vdW  Elec       q    Type
REMARK                         _______ _______ _______ _____ _____    ______ ____
ROOT
ATOM      1  N   LIG     1      -0.317   5.204   4.283  0.00  0.00    -0.299 N 
ATOM      2  H   LIG     1      -1.175   5.551   4.689  0.00  0.00    +0.150 HD
ATOM      3  C   LIG     1       0.151   5.929   3.226  0.00  0.00    +0.300 C 
ATOM      4  N   LIG     1      -0.519   7.059   2.850  0.00  0.00    -0.298 N 
ATOM      5  H   LIG     1      -1.315   7.292   3.426  0.00  0.00    +0.150 HD
ATOM      6  O   LIG     1       1.179   5.562   2.603  0.00  0.00    -0.253 OA
ENDROOT
BRANCH   1   7
ATOM      7  C   LIG     1       0.315   4.034   4.819  0.00  0.00    +0.111 C 
BRANCH   7   8
ATOM      8  C   LIG     1      -0.668   3.027   5.497  0.00  0.00    +0.036 C 
BRANCH   8   9
ATOM      9  C   LIG     1      -1.867   2.595   4.583  0.00  0.00    +0.042 C 
BRANCH   9  13
ATOM     10  C   LIG     1      -0.485   0.560   1.011  0.00  0.00    +0.161 A 
ATOM     11  C   LIG     1      -0.758  -0.160   2.190  0.00  0.00    +0.159 A 
ATOM     12  C   LIG     1      -1.245   0.503   3.330  0.00  0.00    +0.052 A 
ATOM     13  C   LIG     1      -1.471   1.901   3.322  0.00  0.00    -0.043 A 
ATOM     14  C   LIG     1      -1.295   2.632   2.119  0.00  0.00    +0.007 A 
ATOM     15  C   LIG     1      -0.788   1.933   0.962  0.00  0.00    +0.049 A 
BRANCH  10  17
ATOM     16  C   LIG     1       1.493  -0.044  -0.080  0.00  0.00    +0.277 C 
ATOM     17  O   LIG     1       0.052  -0.064  -0.085  0.00  0.00    -0.491 OA
ENDBRANCH  10  17
BRANCH  11  18
ATOM     18  O   LIG     1      -0.537  -1.497   2.237  0.00  0.00    -0.503 OA
ATOM     19  H   LIG     1      -0.490  -1.781   3.153  0.00  0.00    +0.292 HD
ENDBRANCH  11  18
ENDBRANCH   9  13
ENDBRANCH   8   9
BRANCH   8  20
ATOM     20  C   LIG     1       0.148   1.825   6.064  0.00  0.00    +0.161 C 
BRANCH  20  21
ATOM     21  O   LIG     1      -0.681   0.884   6.737  0.00  0.00    -0.395 OA
ATOM     22  H   LIG     1      -0.585   0.993   7.686  0.00  0.00    +0.209 HD
ENDBRANCH  20  21
ENDBRANCH   8  20
ENDBRANCH   7   8
ENDBRANCH   1   7
BRANCH   4  23
ATOM     23  C   LIG     1      -0.164   7.888   1.732  0.00  0.00    +0.128 C 
BRANCH  23  24
ATOM     24  C   LIG     1      -0.605   9.391   1.847  0.00  0.00    +0.037 C 
ATOM     25  C   LIG     1      -0.020  10.206   0.623  0.00  0.00    +0.024 C 
ATOM     26  C   LIG     1       1.519  10.423   0.605  0.00  0.00    +0.002 C 
ATOM     27  C   LIG     1       2.035  11.041   1.922  0.00  0.00    +0.000 C 
ATOM     28  C   LIG     1       1.531  10.271   3.161  0.00  0.00    +0.002 C 
ATOM     29  C   LIG     1      -0.007  10.068   3.141  0.00  0.00    +0.024 C 
BRANCH  24  30
ATOM     30  N   LIG     1      -2.135   9.414   1.841  0.00  0.00    -0.294 NA
ATOM     31  C   LIG     1      -2.953   9.449   0.581  0.00  0.00    +0.095 C 
ATOM     32  C   LIG     1      -3.590  10.845   0.381  0.00  0.00    +0.084 C 
ATOM     33  S   LIG     1      -4.669  11.273   1.785  0.00  0.00    -0.158 S 
ATOM     34  C   LIG     1      -3.618  10.893   3.224  0.00  0.00    +0.084 C 
ATOM     35  C   LIG     1      -2.975   9.494   3.085  0.00  0.00    +0.095 C 
ENDBRANCH  24  30
ENDBRANCH  23  24
ENDBRANCH   4  23
TORSDOF 11
