REMARK    Small molecule (ligand)
REMARK    Compound: PV-001964779672_2_T3
REMARK    SMILES: CC(C)N1C(S)=NN=C1CCNC(=O)N[C@@](C)(CO)CC1=CC=C(Br)C=C1
REMARK    The ligand was originally not a salt, therefore no desalting was carried out.
REMARK    The tautomeric state was generated by cxcalc version 18.20.0 of ChemAxons JChem Suite.
REMARK    Protonation state was generated at pH 7.4 by cxcalc version 18.20.0 of ChemAxons JChem Suite.
REMARK    Generation of the 3D conformation was carried out by molconvert version 18.20.0 of ChemAxons JChem Suite.
REMARK    Generation of the the target format file (pdbqt) was carried out by Open Babel version 2.4.1.
REMARK    Created on Tue Nov 13 13:44:44 EST 2018
REMARK  13 active torsions:
REMARK  status: ('A' for Active; 'I' for Inactive)
REMARK    1  A    between atoms: _1  and  _2
REMARK    2  A    between atoms: _2  and  _3
REMARK    3  A    between atoms: _2  and  _4
REMARK    4  A    between atoms: _5  and  _6
REMARK    5  A    between atoms: _9  and  _10
REMARK    6  A    between atoms: _10  and  _11
REMARK    7  A    between atoms: _11  and  _12
REMARK    8  A    between atoms: _15  and  _16
REMARK    9  A    between atoms: _16  and  _17
REMARK   10  A    between atoms: _16  and  _18
REMARK   11  A    between atoms: _16  and  _20
REMARK   12  A    between atoms: _18  and  _19
REMARK   13  A    between atoms: _20  and  _21
REMARK                            x       y       z     vdW  Elec       q    Type
REMARK                         _______ _______ _______ _____ _____    ______ ____
ROOT
ATOM      1  N   LIG     1      -0.521   3.664   1.278  0.00  0.00    -0.299 N 
ATOM      2  H   LIG     1       0.037   3.869   2.094  0.00  0.00    +0.150 HD
ATOM      3  C   LIG     1      -0.828   2.348   1.137  0.00  0.00    +0.300 C 
ATOM      4  N   LIG     1      -0.185   1.490   1.976  0.00  0.00    -0.292 N 
ATOM      5  H   LIG     1       0.383   1.976   2.654  0.00  0.00    +0.151 HD
ATOM      6  O   LIG     1      -1.626   1.954   0.254  0.00  0.00    -0.253 OA
ENDROOT
BRANCH   4   7
ATOM      7  C   LIG     1      -0.228   0.045   1.999  0.00  0.00    +0.060 C 
ATOM      8  C   LIG     1       0.753  -0.385   3.140  0.00  0.00    +0.034 C 
BRANCH   7   9
ATOM      9  C   LIG     1       0.219  -0.604   0.635  0.00  0.00    +0.063 C 
BRANCH   9  10
ATOM     10  C   LIG     1       1.590  -0.266   0.143  0.00  0.00    -0.045 A 
ATOM     11  C   LIG     1       2.674  -1.152   0.365  0.00  0.00    +0.005 A 
ATOM     12  C   LIG     1       3.963  -0.859  -0.119  0.00  0.00    +0.015 A 
ATOM     13  C   LIG     1       4.191   0.327  -0.840  0.00  0.00    +0.018 A 
ATOM     14 BR   LIG     1       5.889   0.712  -1.500  0.00  0.00    -0.050 Br
ATOM     15  C   LIG     1       3.127   1.215  -1.077  0.00  0.00    +0.015 A 
ATOM     16  C   LIG     1       1.840   0.920  -0.590  0.00  0.00    +0.005 A 
ENDBRANCH   9  10
ENDBRANCH   7   9
BRANCH   7  17
ATOM     17  C   LIG     1      -1.676  -0.419   2.373  0.00  0.00    +0.181 C 
BRANCH  17  18
ATOM     18  O   LIG     1      -1.767  -1.833   2.539  0.00  0.00    -0.393 OA
ATOM     19  H   LIG     1      -1.780  -2.045   3.475  0.00  0.00    +0.209 HD
ENDBRANCH  17  18
ENDBRANCH   7  17
ENDBRANCH   4   7
BRANCH   1  20
ATOM     20  C   LIG     1      -0.910   4.722   0.400  0.00  0.00    +0.113 C 
BRANCH  20  21
ATOM     21  C   LIG     1      -1.856   5.726   1.099  0.00  0.00    +0.095 C 
BRANCH  21  23
ATOM     22  N   LIG     1      -2.712   7.397  -0.660  0.00  0.00    -0.304 N 
ATOM     23  C   LIG     1      -1.931   7.021   0.384  0.00  0.00    +0.136 A 
ATOM     24  N   LIG     1      -1.156   8.055   0.749  0.00  0.00    -0.133 NA
ATOM     25  N   LIG     1      -1.429   9.063  -0.004  0.00  0.00    -0.123 NA
ATOM     26  C   LIG     1      -2.389   8.700  -0.864  0.00  0.00    +0.189 A 
BRANCH  22  28
ATOM     27  C   LIG     1      -5.129   6.934  -1.036  0.00  0.00    +0.030 C 
ATOM     28  C   LIG     1      -3.662   6.568  -1.383  0.00  0.00    +0.085 C 
ATOM     29  C   LIG     1      -3.386   6.533  -2.912  0.00  0.00    +0.030 C 
ENDBRANCH  22  28
BRANCH  26  30
ATOM     30  S   LIG     1      -2.994   9.865  -2.008  0.00  0.00    -0.103 S 
ATOM     31  H   LIG     1      -3.525  10.884  -1.359  0.00  0.00    +0.110 HD
ENDBRANCH  26  30
ENDBRANCH  21  23
ENDBRANCH  20  21
ENDBRANCH   1  20
TORSDOF 10
