REMARK    Small molecule (ligand)
REMARK    Compound: PV-001964779672_2_T2
REMARK    SMILES: CC(C)N1C(CCNC(=O)N[C@@](C)(CO)CC2=CC=C(Br)C=C2)N=NC1=S
REMARK    The ligand was originally not a salt, therefore no desalting was carried out.
REMARK    The tautomeric state was generated by cxcalc version 18.20.0 of ChemAxons JChem Suite.
REMARK    Protonation state was generated at pH 7.4 by cxcalc version 18.20.0 of ChemAxons JChem Suite.
REMARK    Generation of the 3D conformation was carried out by molconvert version 18.20.0 of ChemAxons JChem Suite.
REMARK    Generation of the the target format file (pdbqt) was carried out by Open Babel version 2.4.1.
REMARK    Created on Tue Nov 13 13:44:44 EST 2018
REMARK  12 active torsions:
REMARK  status: ('A' for Active; 'I' for Inactive)
REMARK    1  A    between atoms: _1  and  _2
REMARK    2  A    between atoms: _2  and  _3
REMARK    3  A    between atoms: _2  and  _4
REMARK    4  A    between atoms: _5  and  _6
REMARK    5  A    between atoms: _6  and  _7
REMARK    6  A    between atoms: _7  and  _8
REMARK    7  A    between atoms: _11  and  _12
REMARK    8  A    between atoms: _12  and  _13
REMARK    9  A    between atoms: _12  and  _14
REMARK   10  A    between atoms: _12  and  _16
REMARK   11  A    between atoms: _14  and  _15
REMARK   12  A    between atoms: _16  and  _17
REMARK                            x       y       z     vdW  Elec       q    Type
REMARK                         _______ _______ _______ _____ _____    ______ ____
ROOT
ATOM      1  N   LIG     1      -0.484   3.606   1.216  0.00  0.00    -0.299 N 
ATOM      2  H   LIG     1       0.113   3.819   2.002  0.00  0.00    +0.150 HD
ATOM      3  C   LIG     1      -0.759   2.287   1.070  0.00  0.00    +0.300 C 
ATOM      4  N   LIG     1      -0.096   1.444   1.902  0.00  0.00    -0.292 N 
ATOM      5  H   LIG     1       0.508   1.938   2.543  0.00  0.00    +0.151 HD
ATOM      6  O   LIG     1      -1.561   1.875   0.200  0.00  0.00    -0.253 OA
ENDROOT
BRANCH   4   7
ATOM      7  C   LIG     1      -0.161   0.004   1.961  0.00  0.00    +0.060 C 
ATOM      8  C   LIG     1       0.818  -0.394   3.118  0.00  0.00    +0.034 C 
BRANCH   7   9
ATOM      9  C   LIG     1       0.263  -0.664   0.599  0.00  0.00    +0.063 C 
BRANCH   9  10
ATOM     10  C   LIG     1       1.631  -0.328   0.101  0.00  0.00    -0.045 A 
ATOM     11  C   LIG     1       2.720  -1.190   0.376  0.00  0.00    +0.005 A 
ATOM     12  C   LIG     1       4.009  -0.907  -0.112  0.00  0.00    +0.015 A 
ATOM     13  C   LIG     1       4.236   0.248  -0.881  0.00  0.00    +0.018 A 
ATOM     14 BR   LIG     1       5.938   0.619  -1.533  0.00  0.00    -0.050 Br
ATOM     15  C   LIG     1       3.167   1.120  -1.160  0.00  0.00    +0.015 A 
ATOM     16  C   LIG     1       1.876   0.831  -0.677  0.00  0.00    +0.005 A 
ENDBRANCH   9  10
ENDBRANCH   7   9
BRANCH   7  17
ATOM     17  C   LIG     1      -1.613  -0.445   2.350  0.00  0.00    +0.181 C 
BRANCH  17  18
ATOM     18  O   LIG     1      -1.693  -1.839   2.645  0.00  0.00    -0.393 OA
ATOM     19  H   LIG     1      -1.700  -1.965   3.597  0.00  0.00    +0.209 HD
ENDBRANCH  17  18
ENDBRANCH   7  17
ENDBRANCH   4   7
BRANCH   1  20
ATOM     20  C   LIG     1      -0.955   4.660   0.379  0.00  0.00    +0.109 C 
BRANCH  20  21
ATOM     21  C   LIG     1      -1.816   5.672   1.178  0.00  0.00    +0.067 C 
BRANCH  21  27
ATOM     22  N   LIG     1      -2.864   7.980   1.086  0.00  0.00    -0.284 N 
ATOM     23  C   LIG     1      -2.063   9.052   1.063  0.00  0.00    +0.179 C 
ATOM     24  S   LIG     1      -2.282  10.633   1.656  0.00  0.00    -0.015 S 
ATOM     25  N   LIG     1      -0.988   8.788   0.438  0.00  0.00    -0.098 NA
ATOM     26  N   LIG     1      -0.997   7.639   0.029  0.00  0.00    -0.173 NA
ATOM     27  C   LIG     1      -2.153   6.957   0.368  0.00  0.00    +0.215 C 
BRANCH  22  29
ATOM     28  C   LIG     1      -5.264   7.715   0.503  0.00  0.00    +0.028 C 
ATOM     29  C   LIG     1      -4.205   7.801   1.638  0.00  0.00    +0.071 C 
ATOM     30  C   LIG     1      -4.671   8.807   2.728  0.00  0.00    +0.028 C 
ENDBRANCH  22  29
ENDBRANCH  21  27
ENDBRANCH  20  21
ENDBRANCH   1  20
TORSDOF 9
