REMARK    Small molecule (ligand)
REMARK    Compound: PV-001920588539_1_T1
REMARK    SMILES: CCc1sc(cc1C)C(=O)NNC(=O)CN[C@H](CCO)c1cccc(OC(F)(F)F)c1
REMARK    The ligand was originally not a salt, therefore no desalting was carried out.
REMARK    The tautomeric state was generated by cxcalc version 18.20.0 of ChemAxons JChem Suite.
REMARK    Protonation state was generated at pH 7.4 by cxcalc version 18.20.0 of ChemAxons JChem Suite.
REMARK    Generation of the 3D conformation was carried out by molconvert version 18.20.0 of ChemAxons JChem Suite.
REMARK    Generation of the the target format file (pdbqt) was carried out by Open Babel version 2.4.1.
REMARK    Created on Tue Nov 13 13:45:35 EST 2018
REMARK  14 active torsions:
REMARK  status: ('A' for Active; 'I' for Inactive)
REMARK    1  A    between atoms: _1  and  _2
REMARK    2  A    between atoms: _2  and  _3
REMARK    3  A    between atoms: _5  and  _9
REMARK    4  A    between atoms: _7  and  _8
REMARK    5  A    between atoms: _11  and  _12
REMARK    6  A    between atoms: _13  and  _15
REMARK    7  A    between atoms: _15  and  _16
REMARK    8  A    between atoms: _16  and  _17
REMARK    9  A    between atoms: _17  and  _18
REMARK   10  A    between atoms: _17  and  _21
REMARK   11  A    between atoms: _18  and  _19
REMARK   12  A    between atoms: _19  and  _20
REMARK   13  A    between atoms: _25  and  _26
REMARK   14  A    between atoms: _26  and  _27
REMARK                            x       y       z     vdW  Elec       q    Type
REMARK                         _______ _______ _______ _____ _____    ______ ____
ROOT
ATOM      1  N   LIG     1       0.841   1.068   2.285  0.00  0.00    -0.301 NA
ATOM      2  H   LIG     1       0.481   1.807   1.698  0.00  0.00    +0.123 HD
ENDROOT
BRANCH   1   3
ATOM      3  C   LIG     1      -0.005  -0.101   2.629  0.00  0.00    +0.179 C 
BRANCH   3   6
ATOM      4  N   LIG     1      -0.875   0.918   4.667  0.00  0.00    -0.233 N 
ATOM      5  H   LIG     1      -1.360   1.606   4.109  0.00  0.00    +0.173 HD
ATOM      6  C   LIG     1      -0.271  -0.145   4.080  0.00  0.00    +0.243 C 
ATOM      7  O   LIG     1       0.132  -1.121   4.757  0.00  0.00    -0.273 OA
BRANCH   4   9
ATOM      8  C   LIG     1      -1.863   0.777   6.805  0.00  0.00    +0.267 C 
ATOM      9  N   LIG     1      -0.874   1.125   5.948  0.00  0.00    -0.230 N 
ATOM     10  H   LIG     1      -0.048   1.586   6.302  0.00  0.00    +0.173 HD
ATOM     11  O   LIG     1      -2.872   0.153   6.401  0.00  0.00    -0.268 OA
BRANCH   8  16
ATOM     12  C   LIG     1      -2.104   1.830  10.663  0.00  0.00    -0.007 A 
ATOM     13  C   LIG     1      -0.806   2.051  10.163  0.00  0.00    -0.040 A 
ATOM     14  C   LIG     1       0.302   2.632  10.953  0.00  0.00    +0.044 C 
ATOM     15  C   LIG     1      -0.639   1.684   8.812  0.00  0.00    +0.024 A 
ATOM     16  C   LIG     1      -1.762   1.158   8.158  0.00  0.00    +0.076 A 
ATOM     17  S   LIG     1      -3.039   1.113   9.360  0.00  0.00    -0.088 S 
BRANCH  12  19
ATOM     18  C   LIG     1      -3.459   3.446  12.023  0.00  0.00    +0.009 C 
ATOM     19  C   LIG     1      -2.640   2.136  12.008  0.00  0.00    +0.039 C 
ENDBRANCH  12  19
ENDBRANCH   8  16
ENDBRANCH   4   9
ENDBRANCH   3   6
ENDBRANCH   1   3
BRANCH   1  20
ATOM     20  C   LIG     1       2.228   1.124   2.827  0.00  0.00    +0.087 C 
BRANCH  20  21
ATOM     21  C   LIG     1       3.197   0.399   1.944  0.00  0.00    -0.027 A 
ATOM     22  C   LIG     1       3.339   0.730   0.573  0.00  0.00    +0.051 A 
ATOM     23  C   LIG     1       4.272   0.061  -0.250  0.00  0.00    +0.130 A 
ATOM     24  C   LIG     1       5.081  -0.950   0.302  0.00  0.00    +0.046 A 
ATOM     25  C   LIG     1       4.950  -1.298   1.657  0.00  0.00    +0.004 A 
ATOM     26  C   LIG     1       4.014  -0.632   2.469  0.00  0.00    +0.005 A 
BRANCH  23  27
ATOM     27  O   LIG     1       4.355   0.336  -1.590  0.00  0.00    -0.406 OA
BRANCH  27  28
ATOM     28  C   LIG     1       5.239   1.414  -1.951  0.00  0.00    +0.575 C 
ATOM     29  F   LIG     1       5.194   1.518  -3.317  0.00  0.00    -0.133 F 
ATOM     30  F   LIG     1       4.835   2.621  -1.430  0.00  0.00    -0.133 F 
ATOM     31  F   LIG     1       6.549   1.178  -1.599  0.00  0.00    -0.133 F 
ENDBRANCH  27  28
ENDBRANCH  23  27
ENDBRANCH  20  21
BRANCH  20  32
ATOM     32  C   LIG     1       2.630   2.613   3.036  0.00  0.00    +0.051 C 
BRANCH  32  33
ATOM     33  C   LIG     1       1.852   3.307   4.185  0.00  0.00    +0.157 C 
BRANCH  33  34
ATOM     34  O   LIG     1       2.327   4.635   4.384  0.00  0.00    -0.395 OA
ATOM     35  H   LIG     1       2.391   4.814   5.325  0.00  0.00    +0.209 HD
ENDBRANCH  33  34
ENDBRANCH  32  33
ENDBRANCH  20  32
ENDBRANCH   1  20
TORSDOF 12
