REMARK    Small molecule (ligand)
REMARK    Compound: Z231189234_1_T2
REMARK    SMILES: O=C(CCSCC1=NC2=C(C3=C(CCC3)S2)C(=O)N1)NNC(=S)NCCC1=CC=CS1
REMARK    The ligand was originally not a salt, therefore no desalting was carried out.
REMARK    The tautomeric state was generated by cxcalc version 18.20.0 of ChemAxons JChem Suite.
REMARK    Protonation state was generated at pH 7.4 by cxcalc version 18.20.0 of ChemAxons JChem Suite.
REMARK    Generation of the 3D conformation was carried out by molconvert version 18.20.0 of ChemAxons JChem Suite.
REMARK    Generation of the the target format file (pdbqt) was carried out by Open Babel version 2.4.1.
REMARK    Created on Tue Nov 13 13:45:59 EST 2018
REMARK  11 active torsions:
REMARK  status: ('A' for Active; 'I' for Inactive)
REMARK    1  A    between atoms: _2  and  _3
REMARK    2  A    between atoms: _3  and  _4
REMARK    3  A    between atoms: _4  and  _5
REMARK    4  A    between atoms: _5  and  _6
REMARK    5  A    between atoms: _6  and  _7
REMARK    6  A    between atoms: _20  and  _21
REMARK    7  A    between atoms: _21  and  _22
REMARK    8  A    between atoms: _22  and  _24
REMARK    9  A    between atoms: _24  and  _25
REMARK   10  A    between atoms: _25  and  _26
REMARK   11  A    between atoms: _26  and  _27
REMARK                            x       y       z     vdW  Elec       q    Type
REMARK                         _______ _______ _______ _____ _____    ______ ____
ROOT
ATOM      1  C   LIG     1       4.289  -2.877  -0.296  0.00  0.00    +0.108 C 
ENDROOT
BRANCH   1   3
ATOM      2  O   LIG     1       6.423  -3.561   0.459  0.00  0.00    -0.274 OA
ATOM      3  C   LIG     1       5.198  -3.819   0.394  0.00  0.00    +0.230 C 
ATOM      4  N   LIG     1       4.692  -4.937   0.975  0.00  0.00    -0.235 N 
ATOM      5  H   LIG     1       3.711  -5.149   0.856  0.00  0.00    +0.173 HD
BRANCH   4   6
ATOM      6  N   LIG     1       5.446  -5.782   1.710  0.00  0.00    -0.246 N 
ATOM      7  H   LIG     1       6.071  -5.469   2.438  0.00  0.00    +0.172 HD
BRANCH   6   8
ATOM      8  C   LIG     1       5.267  -7.095   1.358  0.00  0.00    +0.147 C 
ATOM      9  S   LIG     1       5.996  -7.659  -0.078  0.00  0.00    -0.017 S 
BRANCH   8  10
ATOM     10  N   LIG     1       4.583  -7.866   2.201  0.00  0.00    -0.325 N 
ATOM     11  H   LIG     1       3.952  -7.343   2.792  0.00  0.00    +0.148 HD
BRANCH  10  12
ATOM     12  C   LIG     1       4.684  -9.287   2.310  0.00  0.00    +0.108 C 
BRANCH  12  13
ATOM     13  C   LIG     1       3.950  -9.785   3.582  0.00  0.00    +0.061 C 
BRANCH  13  14
ATOM     14  C   LIG     1       4.265 -11.195   3.879  0.00  0.00    -0.009 A 
ATOM     15  S   LIG     1       5.452 -11.755   5.044  0.00  0.00    -0.102 S 
ATOM     16  C   LIG     1       5.297 -13.457   4.655  0.00  0.00    +0.045 A 
ATOM     17  C   LIG     1       4.322 -13.562   3.661  0.00  0.00    +0.008 A 
ATOM     18  C   LIG     1       3.762 -12.339   3.245  0.00  0.00    +0.011 A 
ENDBRANCH  13  14
ENDBRANCH  12  13
ENDBRANCH  10  12
ENDBRANCH   8  10
ENDBRANCH   6   8
ENDBRANCH   4   6
ENDBRANCH   1   3
BRANCH   1  19
ATOM     19  C   LIG     1       3.147  -2.399   0.638  0.00  0.00    +0.079 C 
BRANCH  19  20
ATOM     20  S   LIG     1       2.082  -1.150  -0.155  0.00  0.00    -0.153 S 
BRANCH  20  21
ATOM     21  C   LIG     1       0.702  -0.982   1.026  0.00  0.00    +0.143 C 
BRANCH  21  22
ATOM     22  C   LIG     1      -0.307  -0.057   0.488  0.00  0.00    +0.121 A 
ATOM     23  N   LIG     1      -1.436  -0.548  -0.102  0.00  0.00    -0.310 N 
ATOM     24  H   LIG     1      -1.579  -1.548  -0.134  0.00  0.00    +0.170 HD
ATOM     25  C   LIG     1      -2.380   0.264  -0.651  0.00  0.00    +0.260 A 
ATOM     26  O   LIG     1      -3.390  -0.255  -1.174  0.00  0.00    -0.267 OA
ATOM     27  C   LIG     1      -2.193   1.660  -0.614  0.00  0.00    +0.075 A 
ATOM     28  C   LIG     1      -3.002   2.687  -1.151  0.00  0.00    -0.023 A 
ATOM     29  C   LIG     1      -4.238   2.683  -1.933  0.00  0.00    +0.037 C 
ATOM     30  C   LIG     1      -4.511   4.200  -2.181  0.00  0.00    +0.010 C 
ATOM     31  C   LIG     1      -3.363   5.025  -1.529  0.00  0.00    +0.043 C 
ATOM     32  C   LIG     1      -2.549   3.974  -0.945  0.00  0.00    -0.004 A 
ATOM     33  S   LIG     1      -1.045   3.886  -0.042  0.00  0.00    -0.073 S 
ATOM     34  C   LIG     1      -1.031   2.127   0.031  0.00  0.00    +0.116 A 
ATOM     35  N   LIG     1      -0.111   1.290   0.563  0.00  0.00    -0.226 NA
ENDBRANCH  21  22
ENDBRANCH  20  21
ENDBRANCH  19  20
ENDBRANCH   1  19
TORSDOF 11
