REMARK    Small molecule (ligand)
REMARK    Compound: Z257269442_1_T1
REMARK    SMILES: O=C(NNC(=S)NCCc1cccs1)c1cccc(c1)S(=O)(=O)NCc1cccs1
REMARK    The ligand was originally not a salt, therefore no desalting was carried out.
REMARK    The tautomeric state was generated by cxcalc version 18.20.0 of ChemAxons JChem Suite.
REMARK    Protonation state was generated at pH 7.4 by cxcalc version 18.20.0 of ChemAxons JChem Suite.
REMARK    Generation of the 3D conformation was carried out by molconvert version 18.20.0 of ChemAxons JChem Suite.
REMARK    Generation of the the target format file (pdbqt) was carried out by Open Babel version 2.4.1.
REMARK    Created on Tue Nov 13 13:45:50 EST 2018
REMARK  11 active torsions:
REMARK  status: ('A' for Active; 'I' for Inactive)
REMARK    1  A    between atoms: _2  and  _15
REMARK    2  A    between atoms: _3  and  _4
REMARK    3  A    between atoms: _4  and  _5
REMARK    4  A    between atoms: _5  and  _7
REMARK    5  A    between atoms: _7  and  _8
REMARK    6  A    between atoms: _8  and  _9
REMARK    7  A    between atoms: _9  and  _10
REMARK    8  A    between atoms: _19  and  _21
REMARK    9  A    between atoms: _21  and  _24
REMARK   10  A    between atoms: _24  and  _25
REMARK   11  A    between atoms: _25  and  _26
REMARK                            x       y       z     vdW  Elec       q    Type
REMARK                         _______ _______ _______ _____ _____    ______ ____
ROOT
ATOM      1  O   LIG     1       3.478  -0.374   3.405  0.00  0.00    -0.269 OA
ATOM      2  C   LIG     1       4.317   0.109   2.603  0.00  0.00    +0.260 C 
ATOM      3  N   LIG     1       5.459   0.635   3.118  0.00  0.00    -0.231 N 
ATOM      4  H   LIG     1       6.132   1.053   2.492  0.00  0.00    +0.173 HD
ENDROOT
BRANCH   2   5
ATOM      5  C   LIG     1       4.063   0.091   1.197  0.00  0.00    +0.040 A 
ATOM      6  C   LIG     1       4.937   0.721   0.270  0.00  0.00    +0.041 A 
ATOM      7  C   LIG     1       4.656   0.744  -1.112  0.00  0.00    +0.106 A 
ATOM      8  C   LIG     1       3.496   0.106  -1.589  0.00  0.00    +0.028 A 
ATOM      9  C   LIG     1       2.635  -0.557  -0.702  0.00  0.00    +0.003 A 
ATOM     10  C   LIG     1       2.919  -0.568   0.675  0.00  0.00    +0.013 A 
BRANCH   7  11
ATOM     11  S   LIG     1       5.731   1.551  -2.270  0.00  0.00    +0.059 S 
ATOM     12  O   LIG     1       4.871   2.306  -3.395  0.00  0.00    -0.153 OA
ATOM     13  O   LIG     1       6.639   0.442  -2.991  0.00  0.00    -0.153 OA
BRANCH  11  14
ATOM     14  N   LIG     1       6.817   2.709  -1.496  0.00  0.00    -0.185 NA
ATOM     15  H   LIG     1       7.816   2.685  -1.351  0.00  0.00    +0.148 HD
BRANCH  14  16
ATOM     16  C   LIG     1       6.133   3.909  -0.980  0.00  0.00    +0.148 C 
BRANCH  16  17
ATOM     17  C   LIG     1       7.084   4.693  -0.177  0.00  0.00    +0.005 A 
ATOM     18  S   LIG     1       7.845   6.210  -0.628  0.00  0.00    -0.100 S 
ATOM     19  C   LIG     1       8.799   6.374   0.835  0.00  0.00    +0.045 A 
ATOM     20  C   LIG     1       8.523   5.260   1.631  0.00  0.00    +0.008 A 
ATOM     21  C   LIG     1       7.599   4.352   1.082  0.00  0.00    +0.012 A 
ENDBRANCH  16  17
ENDBRANCH  14  16
ENDBRANCH  11  14
ENDBRANCH   7  11
ENDBRANCH   2   5
BRANCH   3  22
ATOM     22  N   LIG     1       5.733   0.623   4.440  0.00  0.00    -0.246 N 
ATOM     23  H   LIG     1       5.433  -0.110   5.067  0.00  0.00    +0.172 HD
BRANCH  22  24
ATOM     24  C   LIG     1       6.462   1.724   4.810  0.00  0.00    +0.147 C 
ATOM     25  S   LIG     1       5.686   3.235   4.975  0.00  0.00    -0.017 S 
BRANCH  24  26
ATOM     26  N   LIG     1       7.747   1.512   5.073  0.00  0.00    -0.325 N 
ATOM     27  H   LIG     1       8.082   0.634   4.703  0.00  0.00    +0.148 HD
BRANCH  26  28
ATOM     28  C   LIG     1       8.621   2.382   5.791  0.00  0.00    +0.108 C 
BRANCH  28  29
ATOM     29  C   LIG     1       9.957   1.654   6.083  0.00  0.00    +0.061 C 
BRANCH  29  30
ATOM     30  C   LIG     1      10.745   2.375   7.095  0.00  0.00    -0.009 A 
ATOM     31  S   LIG     1      10.730   2.064   8.823  0.00  0.00    -0.102 S 
ATOM     32  C   LIG     1      11.796   3.388   9.250  0.00  0.00    +0.045 A 
ATOM     33  C   LIG     1      12.147   4.030   8.059  0.00  0.00    +0.008 A 
ATOM     34  C   LIG     1      11.578   3.484   6.894  0.00  0.00    +0.011 A 
ENDBRANCH  29  30
ENDBRANCH  28  29
ENDBRANCH  26  28
ENDBRANCH  24  26
ENDBRANCH  22  24
ENDBRANCH   3  22
TORSDOF 11
