REMARK    Small molecule (ligand)
REMARK    Compound: Z363055172_1_T2
REMARK    SMILES: ClC1=CC=C(SCCNC(=S)NNC2=CC=C(C=N2)S(=O)(=O)NC2CC2)C=C1
REMARK    The ligand was originally not a salt, therefore no desalting was carried out.
REMARK    The tautomeric state was generated by cxcalc version 18.20.0 of ChemAxons JChem Suite.
REMARK    Protonation state was generated at pH 7.4 by cxcalc version 18.20.0 of ChemAxons JChem Suite.
REMARK    Generation of the 3D conformation was carried out by molconvert version 18.20.0 of ChemAxons JChem Suite.
REMARK    Generation of the the target format file (pdbqt) was carried out by Open Babel version 2.4.1.
REMARK    Created on Tue Nov 13 13:45:57 EST 2018
REMARK  11 active torsions:
REMARK  status: ('A' for Active; 'I' for Inactive)
REMARK    1  A    between atoms: _5  and  _6
REMARK    2  A    between atoms: _6  and  _7
REMARK    3  A    between atoms: _7  and  _8
REMARK    4  A    between atoms: _8  and  _9
REMARK    5  A    between atoms: _9  and  _10
REMARK    6  A    between atoms: _10  and  _12
REMARK    7  A    between atoms: _12  and  _13
REMARK    8  A    between atoms: _13  and  _14
REMARK    9  A    between atoms: _17  and  _20
REMARK   10  A    between atoms: _20  and  _23
REMARK   11  A    between atoms: _23  and  _24
REMARK                            x       y       z     vdW  Elec       q    Type
REMARK                         _______ _______ _______ _____ _____    ______ ____
ROOT
ATOM      1  N   LIG     1      -4.187   2.715   0.020  0.00  0.00    -0.247 N 
ATOM      2  H   LIG     1      -4.011   2.464  -0.942  0.00  0.00    +0.172 HD
ENDROOT
BRANCH   1   3
ATOM      3  C   LIG     1      -3.493   2.096   0.970  0.00  0.00    +0.147 C 
ATOM      4  S   LIG     1      -4.012   2.023   2.591  0.00  0.00    -0.017 S 
BRANCH   3   5
ATOM      5  N   LIG     1      -2.325   1.518   0.694  0.00  0.00    -0.325 N 
ATOM      6  H   LIG     1      -1.954   0.974   1.460  0.00  0.00    +0.148 HD
BRANCH   5   7
ATOM      7  C   LIG     1      -1.628   1.630  -0.552  0.00  0.00    +0.114 C 
BRANCH   7   8
ATOM      8  C   LIG     1      -0.185   1.096  -0.456  0.00  0.00    +0.093 C 
BRANCH   8   9
ATOM      9  S   LIG     1       0.665   1.347  -2.052  0.00  0.00    -0.124 S 
BRANCH   9  14
ATOM     10 CL   LIG     1       6.671  -0.198  -1.137  0.00  0.00    -0.084 Cl
ATOM     11  C   LIG     1       5.041   0.214  -1.341  0.00  0.00    +0.041 A 
ATOM     12  C   LIG     1       4.080  -0.790  -1.573  0.00  0.00    +0.021 A 
ATOM     13  C   LIG     1       2.730  -0.445  -1.772  0.00  0.00    +0.016 A 
ATOM     14  C   LIG     1       2.334   0.907  -1.739  0.00  0.00    +0.008 A 
ATOM     15  C   LIG     1       3.291   1.910  -1.481  0.00  0.00    +0.016 A 
ATOM     16  C   LIG     1       4.641   1.565  -1.282  0.00  0.00    +0.021 A 
ENDBRANCH   9  14
ENDBRANCH   8   9
ENDBRANCH   7   8
ENDBRANCH   5   7
ENDBRANCH   3   5
ENDBRANCH   1   3
BRANCH   1  17
ATOM     17  N   LIG     1      -5.092   3.633   0.216  0.00  0.00    -0.249 N 
ATOM     18  H   LIG     1      -5.408   3.780   1.164  0.00  0.00    +0.171 HD
BRANCH  17  19
ATOM     19  C   LIG     1      -5.589   4.361  -0.813  0.00  0.00    +0.135 A 
ATOM     20  N   LIG     1      -5.514   3.898  -2.091  0.00  0.00    -0.237 NA
ATOM     21  C   LIG     1      -5.924   4.613  -3.166  0.00  0.00    +0.141 A 
ATOM     22  C   LIG     1      -6.418   5.922  -2.995  0.00  0.00    +0.123 A 
ATOM     23  C   LIG     1      -6.557   6.415  -1.682  0.00  0.00    +0.033 A 
ATOM     24  C   LIG     1      -6.154   5.632  -0.582  0.00  0.00    +0.047 A 
BRANCH  22  25
ATOM     25  S   LIG     1      -6.843   6.935  -4.385  0.00  0.00    +0.060 S 
ATOM     26  O   LIG     1      -6.275   8.421  -4.175  0.00  0.00    -0.153 OA
ATOM     27  O   LIG     1      -8.440   7.015  -4.525  0.00  0.00    -0.153 OA
BRANCH  25  28
ATOM     28  N   LIG     1      -6.201   6.299  -5.899  0.00  0.00    -0.187 NA
ATOM     29  H   LIG     1      -6.660   5.933  -6.721  0.00  0.00    +0.148 HD
BRANCH  28  30
ATOM     30  C   LIG     1      -4.729   6.325  -5.931  0.00  0.00    +0.077 C 
ATOM     31  C   LIG     1      -4.013   7.515  -6.582  0.00  0.00    +0.022 C 
ATOM     32  C   LIG     1      -4.151   6.193  -7.347  0.00  0.00    +0.022 C 
ENDBRANCH  28  30
ENDBRANCH  25  28
ENDBRANCH  22  25
ENDBRANCH  17  19
ENDBRANCH   1  17
TORSDOF 11
