REMARK    Small molecule (ligand)
REMARK    Compound: Z363055750_1_T2
REMARK    SMILES: O=S(=O)(NC1CCCC1)C1=CC=C(NNC(=S)NCCSC2=CC=CC=C2)N=C1
REMARK    The ligand was originally not a salt, therefore no desalting was carried out.
REMARK    The tautomeric state was generated by cxcalc version 18.20.0 of ChemAxons JChem Suite.
REMARK    Protonation state was generated at pH 7.4 by cxcalc version 18.20.0 of ChemAxons JChem Suite.
REMARK    Generation of the 3D conformation was carried out by molconvert version 18.20.0 of ChemAxons JChem Suite.
REMARK    Generation of the the target format file (pdbqt) was carried out by Open Babel version 2.4.1.
REMARK    Created on Tue Nov 13 13:45:55 EST 2018
REMARK  11 active torsions:
REMARK  status: ('A' for Active; 'I' for Inactive)
REMARK    1  A    between atoms: _2  and  _4
REMARK    2  A    between atoms: _2  and  _10
REMARK    3  A    between atoms: _4  and  _5
REMARK    4  A    between atoms: _13  and  _14
REMARK    5  A    between atoms: _14  and  _15
REMARK    6  A    between atoms: _15  and  _16
REMARK    7  A    between atoms: _16  and  _18
REMARK    8  A    between atoms: _18  and  _19
REMARK    9  A    between atoms: _19  and  _20
REMARK   10  A    between atoms: _20  and  _21
REMARK   11  A    between atoms: _21  and  _22
REMARK                            x       y       z     vdW  Elec       q    Type
REMARK                         _______ _______ _______ _____ _____    ______ ____
ROOT
ATOM      1  N   LIG     1       2.349  -0.627   4.706  0.00  0.00    -0.249 N 
ATOM      2  H   LIG     1       2.998  -1.225   5.197  0.00  0.00    +0.171 HD
ENDROOT
BRANCH   1   6
ATOM      3  C   LIG     1       2.057  -0.775   0.556  0.00  0.00    +0.123 A 
ATOM      4  C   LIG     1       1.531   0.297   1.302  0.00  0.00    +0.141 A 
ATOM      5  N   LIG     1       1.625   0.293   2.655  0.00  0.00    -0.237 NA
ATOM      6  C   LIG     1       2.235  -0.700   3.358  0.00  0.00    +0.135 A 
ATOM      7  C   LIG     1       2.792  -1.789   2.655  0.00  0.00    +0.047 A 
ATOM      8  C   LIG     1       2.686  -1.829   1.251  0.00  0.00    +0.033 A 
BRANCH   3  10
ATOM      9  O   LIG     1       0.478  -1.454  -1.588  0.00  0.00    -0.153 OA
ATOM     10  S   LIG     1       1.887  -0.787  -1.208  0.00  0.00    +0.060 S 
ATOM     11  O   LIG     1       1.921   0.715  -1.773  0.00  0.00    -0.153 OA
BRANCH  10  12
ATOM     12  N   LIG     1       3.189  -1.710  -1.964  0.00  0.00    -0.187 NA
ATOM     13  H   LIG     1       4.022  -2.117  -1.563  0.00  0.00    +0.148 HD
BRANCH  12  14
ATOM     14  C   LIG     1       3.030  -1.919  -3.422  0.00  0.00    +0.077 C 
ATOM     15  C   LIG     1       3.195  -0.651  -4.294  0.00  0.00    +0.020 C 
ATOM     16  C   LIG     1       3.741  -1.128  -5.659  0.00  0.00    +0.002 C 
ATOM     17  C   LIG     1       4.152  -2.604  -5.475  0.00  0.00    +0.002 C 
ATOM     18  C   LIG     1       4.129  -2.857  -3.957  0.00  0.00    +0.020 C 
ENDBRANCH  12  14
ENDBRANCH  10  12
ENDBRANCH   3  10
ENDBRANCH   1   6
BRANCH   1  19
ATOM     19  N   LIG     1       1.646   0.200   5.435  0.00  0.00    -0.247 N 
ATOM     20  H   LIG     1       0.792   0.553   5.027  0.00  0.00    +0.172 HD
BRANCH  19  21
ATOM     21  C   LIG     1       1.976   0.599   6.659  0.00  0.00    +0.147 C 
ATOM     22  S   LIG     1       3.588   0.476   7.217  0.00  0.00    -0.017 S 
BRANCH  21  23
ATOM     23  N   LIG     1       0.994   1.132   7.396  0.00  0.00    -0.325 N 
ATOM     24  H   LIG     1       0.073   0.975   7.012  0.00  0.00    +0.148 HD
BRANCH  23  25
ATOM     25  C   LIG     1       1.167   1.863   8.616  0.00  0.00    +0.114 C 
BRANCH  25  26
ATOM     26  C   LIG     1      -0.157   2.164   9.356  0.00  0.00    +0.093 C 
BRANCH  26  27
ATOM     27  S   LIG     1       0.224   3.068  10.897  0.00  0.00    -0.124 S 
BRANCH  27  28
ATOM     28  C   LIG     1      -1.297   3.257  11.752  0.00  0.00    +0.008 A 
ATOM     29  C   LIG     1      -2.123   4.372  11.497  0.00  0.00    +0.015 A 
ATOM     30  C   LIG     1      -3.298   4.568  12.249  0.00  0.00    +0.001 A 
ATOM     31  C   LIG     1      -3.655   3.650  13.254  0.00  0.00    +0.000 A 
ATOM     32  C   LIG     1      -2.842   2.528  13.500  0.00  0.00    +0.001 A 
ATOM     33  C   LIG     1      -1.667   2.330  12.750  0.00  0.00    +0.015 A 
ENDBRANCH  27  28
ENDBRANCH  26  27
ENDBRANCH  25  26
ENDBRANCH  23  25
ENDBRANCH  21  23
ENDBRANCH  19  21
ENDBRANCH   1  19
TORSDOF 11
