REMARK    Small molecule (ligand)
REMARK    Compound: Z406196168_1_T1
REMARK    SMILES: O=C(Cc1csc(NC(=O)Cc2cccs2)n1)NNC(=S)NCCc1cccs1
REMARK    The ligand was originally not a salt, therefore no desalting was carried out.
REMARK    The tautomeric state was generated by cxcalc version 18.20.0 of ChemAxons JChem Suite.
REMARK    Protonation state was generated at pH 7.4 by cxcalc version 18.20.0 of ChemAxons JChem Suite.
REMARK    Generation of the 3D conformation was carried out by molconvert version 18.20.0 of ChemAxons JChem Suite.
REMARK    Generation of the the target format file (pdbqt) was carried out by Open Babel version 2.4.1.
REMARK    Created on Tue Nov 13 13:45:46 EST 2018
REMARK  10 active torsions:
REMARK  status: ('A' for Active; 'I' for Inactive)
REMARK    1  A    between atoms: _2  and  _3
REMARK    2  A    between atoms: _3  and  _4
REMARK    3  A    between atoms: _9  and  _11
REMARK    4  A    between atoms: _11  and  _12
REMARK    5  A    between atoms: _18  and  _19
REMARK    6  A    between atoms: _19  and  _20
REMARK    7  A    between atoms: _20  and  _22
REMARK    8  A    between atoms: _22  and  _23
REMARK    9  A    between atoms: _23  and  _24
REMARK   10  A    between atoms: _24  and  _25
REMARK                            x       y       z     vdW  Elec       q    Type
REMARK                         _______ _______ _______ _____ _____    ______ ____
ROOT
ATOM      1  O   LIG     1      -3.662  -0.561   1.228  0.00  0.00    -0.274 OA
ATOM      2  C   LIG     1      -2.766  -1.437   1.280  0.00  0.00    +0.235 C 
ATOM      3  N   LIG     1      -3.097  -2.755   1.307  0.00  0.00    -0.235 N 
ATOM      4  H   LIG     1      -2.360  -3.446   1.322  0.00  0.00    +0.173 HD
ENDROOT
BRANCH   3   5
ATOM      5  N   LIG     1      -4.388  -3.171   1.314  0.00  0.00    -0.246 N 
ATOM      6  H   LIG     1      -5.080  -2.785   0.688  0.00  0.00    +0.172 HD
BRANCH   5   7
ATOM      7  C   LIG     1      -4.665  -4.153   2.239  0.00  0.00    +0.147 C 
ATOM      8  S   LIG     1      -4.523  -3.815   3.905  0.00  0.00    -0.017 S 
BRANCH   7   9
ATOM      9  N   LIG     1      -5.115  -5.310   1.758  0.00  0.00    -0.325 N 
ATOM     10  H   LIG     1      -4.970  -5.392   0.761  0.00  0.00    +0.148 HD
BRANCH   9  11
ATOM     11  C   LIG     1      -5.742  -6.367   2.490  0.00  0.00    +0.108 C 
BRANCH  11  12
ATOM     12  C   LIG     1      -6.300  -7.425   1.504  0.00  0.00    +0.061 C 
BRANCH  12  13
ATOM     13  C   LIG     1      -6.972  -8.556   2.172  0.00  0.00    -0.009 A 
ATOM     14  S   LIG     1      -8.706  -8.795   2.311  0.00  0.00    -0.102 S 
ATOM     15  C   LIG     1      -8.609 -10.287   3.225  0.00  0.00    +0.045 A 
ATOM     16  C   LIG     1      -7.252 -10.572   3.396  0.00  0.00    +0.008 A 
ATOM     17  C   LIG     1      -6.367  -9.639   2.825  0.00  0.00    +0.011 A 
ENDBRANCH  12  13
ENDBRANCH  11  12
ENDBRANCH   9  11
ENDBRANCH   7   9
ENDBRANCH   5   7
ENDBRANCH   3   5
BRANCH   2  18
ATOM     18  C   LIG     1      -1.353  -1.005   1.335  0.00  0.00    +0.153 C 
BRANCH  18  19
ATOM     19  C   LIG     1      -0.572  -1.445   0.160  0.00  0.00    +0.059 A 
ATOM     20  N   LIG     1      -0.081  -2.714   0.067  0.00  0.00    -0.229 NA
ATOM     21  C   LIG     1       0.645  -3.018  -1.036  0.00  0.00    +0.165 A 
ATOM     22  N   LIG     1       1.222  -4.192  -1.382  0.00  0.00    -0.264 N 
ATOM     23  H   LIG     1       1.728  -4.204  -2.256  0.00  0.00    +0.157 HD
ATOM     24  C   LIG     1       1.191  -5.354  -0.675  0.00  0.00    +0.223 C 
ATOM     25  O   LIG     1       0.618  -5.450   0.438  0.00  0.00    -0.275 OA
ATOM     26  S   LIG     1       0.698  -1.566  -2.020  0.00  0.00    -0.060 S 
ATOM     27  C   LIG     1      -0.267  -0.602  -0.922  0.00  0.00    +0.072 A 
BRANCH  24  28
ATOM     28  C   LIG     1       1.844  -6.545  -1.249  0.00  0.00    +0.138 C 
BRANCH  28  29
ATOM     29  C   LIG     1       3.200  -6.721  -0.699  0.00  0.00    -0.001 A 
ATOM     30  S   LIG     1       3.627  -7.608   0.755  0.00  0.00    -0.101 S 
ATOM     31  C   LIG     1       5.356  -7.355   0.618  0.00  0.00    +0.045 A 
ATOM     32  C   LIG     1       5.563  -6.579  -0.523  0.00  0.00    +0.008 A 
ATOM     33  C   LIG     1       4.400  -6.232  -1.233  0.00  0.00    +0.011 A 
ENDBRANCH  28  29
ENDBRANCH  24  28
ENDBRANCH  18  19
ENDBRANCH   2  18
TORSDOF 10
