REMARK    Small molecule (ligand)
REMARK    Compound: Z45768979_1_T1
REMARK    SMILES: O=C(NNC(=S)NCCCN1CCOCC1)c1ccc(CSc2nc3ccccc3[nH]2)cc1
REMARK    The ligand was originally not a salt, therefore no desalting was carried out.
REMARK    The tautomeric state was generated by cxcalc version 18.20.0 of ChemAxons JChem Suite.
REMARK    Protonation state was generated at pH 7.4 by cxcalc version 18.20.0 of ChemAxons JChem Suite.
REMARK    Generation of the 3D conformation was carried out by molconvert version 18.20.0 of ChemAxons JChem Suite.
REMARK    Generation of the the target format file (pdbqt) was carried out by Open Babel version 2.4.1.
REMARK    Created on Tue Nov 13 13:46:00 EST 2018
REMARK  11 active torsions:
REMARK  status: ('A' for Active; 'I' for Inactive)
REMARK    1  A    between atoms: _2  and  _17
REMARK    2  A    between atoms: _3  and  _4
REMARK    3  A    between atoms: _4  and  _5
REMARK    4  A    between atoms: _5  and  _7
REMARK    5  A    between atoms: _7  and  _8
REMARK    6  A    between atoms: _8  and  _9
REMARK    7  A    between atoms: _9  and  _10
REMARK    8  A    between atoms: _10  and  _11
REMARK    9  A    between atoms: _20  and  _21
REMARK   10  A    between atoms: _21  and  _22
REMARK   11  A    between atoms: _22  and  _23
REMARK                            x       y       z     vdW  Elec       q    Type
REMARK                         _______ _______ _______ _____ _____    ______ ____
ROOT
ATOM      1  O   LIG     1       8.736  -0.795   0.201  0.00  0.00    -0.269 OA
ATOM      2  C   LIG     1       7.988  -1.384  -0.617  0.00  0.00    +0.260 C 
ATOM      3  N   LIG     1       8.567  -2.059  -1.667  0.00  0.00    -0.231 N 
ATOM      4  H   LIG     1       7.989  -2.509  -2.363  0.00  0.00    +0.173 HD
ENDROOT
BRANCH   2   5
ATOM      5  C   LIG     1       6.578  -1.375  -0.414  0.00  0.00    +0.038 A 
ATOM      6  C   LIG     1       6.036  -1.147   0.876  0.00  0.00    +0.013 A 
ATOM      7  C   LIG     1       4.646  -1.167   1.099  0.00  0.00    +0.005 A 
ATOM      8  C   LIG     1       3.748  -1.396   0.033  0.00  0.00    -0.037 A 
ATOM      9  C   LIG     1       4.280  -1.615  -1.258  0.00  0.00    +0.005 A 
ATOM     10  C   LIG     1       5.673  -1.606  -1.478  0.00  0.00    +0.013 A 
BRANCH   8  11
ATOM     11  C   LIG     1       2.280  -1.407   0.267  0.00  0.00    +0.112 C 
BRANCH  11  12
ATOM     12  S   LIG     1       1.542   0.218  -0.110  0.00  0.00    -0.083 S 
BRANCH  12  13
ATOM     13  C   LIG     1      -0.169   0.002   0.216  0.00  0.00    +0.168 A 
ATOM     14  N   LIG     1      -1.078  -0.342  -0.714  0.00  0.00    -0.333 N 
ATOM     15  H   LIG     1      -0.898  -0.516  -1.692  0.00  0.00    +0.168 HD
ATOM     16  C   LIG     1      -2.268  -0.414  -0.111  0.00  0.00    +0.067 A 
ATOM     17  C   LIG     1      -3.541  -0.727  -0.614  0.00  0.00    +0.028 A 
ATOM     18  C   LIG     1      -4.633  -0.712   0.281  0.00  0.00    +0.002 A 
ATOM     19  C   LIG     1      -4.435  -0.401   1.647  0.00  0.00    +0.002 A 
ATOM     20  C   LIG     1      -3.144  -0.097   2.136  0.00  0.00    +0.030 A 
ATOM     21  C   LIG     1      -2.067  -0.103   1.231  0.00  0.00    +0.090 A 
ATOM     22  N   LIG     1      -0.760   0.154   1.421  0.00  0.00    -0.222 NA
ENDBRANCH  12  13
ENDBRANCH  11  12
ENDBRANCH   8  11
ENDBRANCH   2   5
BRANCH   3  23
ATOM     23  N   LIG     1       9.915  -2.135  -1.792  0.00  0.00    -0.246 N 
ATOM     24  H   LIG     1      10.536  -2.209  -0.998  0.00  0.00    +0.172 HD
BRANCH  23  25
ATOM     25  C   LIG     1      10.341  -2.101  -3.095  0.00  0.00    +0.147 C 
ATOM     26  S   LIG     1      10.413  -0.593  -3.889  0.00  0.00    -0.017 S 
BRANCH  25  27
ATOM     27  N   LIG     1      10.759  -3.250  -3.630  0.00  0.00    -0.325 N 
ATOM     28  H   LIG     1      10.445  -4.063  -3.120  0.00  0.00    +0.148 HD
BRANCH  27  29
ATOM     29  C   LIG     1      11.566  -3.387  -4.800  0.00  0.00    +0.104 C 
BRANCH  29  30
ATOM     30  C   LIG     1      11.865  -4.880  -5.101  0.00  0.00    +0.034 C 
BRANCH  30  31
ATOM     31  C   LIG     1      12.897  -5.038  -6.250  0.00  0.00    +0.086 C 
BRANCH  31  32
ATOM     32  N   LIG     1      13.280  -6.447  -6.597  0.00  0.00    -0.298 NA
ATOM     33  C   LIG     1      12.159  -7.276  -7.153  0.00  0.00    +0.112 C 
ATOM     34  C   LIG     1      12.652  -8.682  -7.580  0.00  0.00    +0.175 C 
ATOM     35  O   LIG     1      13.768  -8.580  -8.485  0.00  0.00    -0.377 OA
ATOM     36  C   LIG     1      14.888  -7.879  -7.914  0.00  0.00    +0.175 C 
ATOM     37  C   LIG     1      14.479  -6.450  -7.497  0.00  0.00    +0.112 C 
ENDBRANCH  31  32
ENDBRANCH  30  31
ENDBRANCH  29  30
ENDBRANCH  27  29
ENDBRANCH  25  27
ENDBRANCH  23  25
ENDBRANCH   3  23
TORSDOF 11
