REMARK    Small molecule (ligand)
REMARK    Compound: Z830003052_1_T2
REMARK    SMILES: O=S(=O)(NC1CCCC1)C1=CC=C(NNC(=S)NC2CCN(CC3=CC=CC=C3)CC2)N=C1
REMARK    The ligand was originally not a salt, therefore no desalting was carried out.
REMARK    The tautomeric state was generated by cxcalc version 18.20.0 of ChemAxons JChem Suite.
REMARK    Protonation state was generated at pH 7.4 by cxcalc version 18.20.0 of ChemAxons JChem Suite.
REMARK    Generation of the 3D conformation was carried out by molconvert version 18.20.0 of ChemAxons JChem Suite.
REMARK    Generation of the the target format file (pdbqt) was carried out by Open Babel version 2.4.1.
REMARK    Created on Tue Nov 13 13:45:53 EST 2018
REMARK  10 active torsions:
REMARK  status: ('A' for Active; 'I' for Inactive)
REMARK    1  A    between atoms: _2  and  _4
REMARK    2  A    between atoms: _2  and  _10
REMARK    3  A    between atoms: _4  and  _5
REMARK    4  A    between atoms: _13  and  _14
REMARK    5  A    between atoms: _14  and  _15
REMARK    6  A    between atoms: _15  and  _16
REMARK    7  A    between atoms: _16  and  _18
REMARK    8  A    between atoms: _18  and  _19
REMARK    9  A    between atoms: _22  and  _23
REMARK   10  A    between atoms: _23  and  _24
REMARK                            x       y       z     vdW  Elec       q    Type
REMARK                         _______ _______ _______ _____ _____    ______ ____
ROOT
ATOM      1  N   LIG     1       0.157  -0.708  -8.367  0.00  0.00    -0.247 N 
ATOM      2  H   LIG     1      -0.595  -0.539  -7.714  0.00  0.00    +0.172 HD
ENDROOT
BRANCH   1   3
ATOM      3  N   LIG     1       1.265  -1.158  -7.843  0.00  0.00    -0.249 N 
ATOM      4  H   LIG     1       1.985  -1.483  -8.471  0.00  0.00    +0.171 HD
BRANCH   3   8
ATOM      5  C   LIG     1       1.713  -1.083  -3.699  0.00  0.00    +0.123 A 
ATOM      6  C   LIG     1       0.478  -0.829  -4.324  0.00  0.00    +0.141 A 
ATOM      7  N   LIG     1       0.382  -0.883  -5.672  0.00  0.00    -0.237 NA
ATOM      8  C   LIG     1       1.426  -1.180  -6.493  0.00  0.00    +0.135 A 
ATOM      9  C   LIG     1       2.678  -1.470  -5.913  0.00  0.00    +0.047 A 
ATOM     10  C   LIG     1       2.817  -1.419  -4.510  0.00  0.00    +0.033 A 
BRANCH   5  12
ATOM     11  O   LIG     1       2.242   0.598  -1.591  0.00  0.00    -0.153 OA
ATOM     12  S   LIG     1       1.859  -0.920  -1.941  0.00  0.00    +0.060 S 
ATOM     13  O   LIG     1       0.469  -1.286  -1.230  0.00  0.00    -0.153 OA
BRANCH  12  14
ATOM     14  N   LIG     1       3.123  -1.984  -1.322  0.00  0.00    -0.187 NA
ATOM     15  H   LIG     1       3.682  -2.682  -1.791  0.00  0.00    +0.148 HD
BRANCH  14  16
ATOM     16  C   LIG     1       3.406  -1.820   0.123  0.00  0.00    +0.077 C 
ATOM     17  C   LIG     1       2.324  -2.400   1.063  0.00  0.00    +0.020 C 
ATOM     18  C   LIG     1       3.056  -2.874   2.337  0.00  0.00    +0.002 C 
ATOM     19  C   LIG     1       4.567  -2.818   2.029  0.00  0.00    +0.002 C 
ATOM     20  C   LIG     1       4.681  -2.594   0.510  0.00  0.00    +0.020 C 
ENDBRANCH  14  16
ENDBRANCH  12  14
ENDBRANCH   5  12
ENDBRANCH   3   8
ENDBRANCH   1   3
BRANCH   1  21
ATOM     21  C   LIG     1      -0.076  -0.456  -9.650  0.00  0.00    +0.147 C 
ATOM     22  S   LIG     1       0.972  -0.959 -10.897  0.00  0.00    -0.017 S 
BRANCH  21  23
ATOM     23  N   LIG     1      -1.167   0.222 -10.008  0.00  0.00    -0.323 N 
ATOM     24  H   LIG     1      -1.365   0.144 -10.995  0.00  0.00    +0.148 HD
BRANCH  23  25
ATOM     25  C   LIG     1      -2.012   0.998  -9.135  0.00  0.00    +0.074 C 
ATOM     26  C   LIG     1      -2.568   2.238  -9.894  0.00  0.00    +0.037 C 
ATOM     27  C   LIG     1      -3.601   3.016  -9.033  0.00  0.00    +0.086 C 
ATOM     28  N   LIG     1      -4.695   2.129  -8.519  0.00  0.00    -0.298 NA
ATOM     29  C   LIG     1      -4.149   0.995  -7.705  0.00  0.00    +0.086 C 
ATOM     30  C   LIG     1      -3.161   0.131  -8.538  0.00  0.00    +0.037 C 
BRANCH  28  31
ATOM     31  C   LIG     1      -5.889   1.793  -9.375  0.00  0.00    +0.119 C 
BRANCH  31  32
ATOM     32  C   LIG     1      -5.951   2.359 -10.751  0.00  0.00    -0.033 A 
ATOM     33  C   LIG     1      -5.606   1.565 -11.873  0.00  0.00    +0.005 A 
ATOM     34  C   LIG     1      -5.642   2.105 -13.171  0.00  0.00    +0.000 A 
ATOM     35  C   LIG     1      -6.030   3.443 -13.367  0.00  0.00    +0.000 A 
ATOM     36  C   LIG     1      -6.396   4.236 -12.265  0.00  0.00    +0.000 A 
ATOM     37  C   LIG     1      -6.360   3.696 -10.966  0.00  0.00    +0.005 A 
ENDBRANCH  31  32
ENDBRANCH  28  31
ENDBRANCH  23  25
ENDBRANCH  21  23
ENDBRANCH   1  21
TORSDOF 10
