REMARK    Small molecule (ligand)
REMARK    Compound: Z830003052_1_T1
REMARK    SMILES: O=S(=O)(NC1CCCC1)C1=CNC(C=C1)=NNC(=S)NC1CCN(CC2=CC=CC=C2)CC1
REMARK    The ligand was originally not a salt, therefore no desalting was carried out.
REMARK    The tautomeric state was generated by cxcalc version 18.20.0 of ChemAxons JChem Suite.
REMARK    Protonation state was generated at pH 7.4 by cxcalc version 18.20.0 of ChemAxons JChem Suite.
REMARK    Generation of the 3D conformation was carried out by molconvert version 18.20.0 of ChemAxons JChem Suite.
REMARK    Generation of the the target format file (pdbqt) was carried out by Open Babel version 2.4.1.
REMARK    Created on Tue Nov 13 13:45:52 EST 2018
REMARK  10 active torsions:
REMARK  status: ('A' for Active; 'I' for Inactive)
REMARK    1  A    between atoms: _2  and  _4
REMARK    2  A    between atoms: _2  and  _10
REMARK    3  A    between atoms: _4  and  _5
REMARK    4  A    between atoms: _13  and  _16
REMARK    5  A    between atoms: _16  and  _17
REMARK    6  A    between atoms: _17  and  _18
REMARK    7  A    between atoms: _18  and  _20
REMARK    8  A    between atoms: _20  and  _21
REMARK    9  A    between atoms: _24  and  _25
REMARK   10  A    between atoms: _25  and  _26
REMARK                            x       y       z     vdW  Elec       q    Type
REMARK                         _______ _______ _______ _____ _____    ______ ____
ROOT
ATOM      1  N   LIG     1       1.952   0.289   5.314  0.00  0.00    -0.132 N 
ATOM      2  H   LIG     1       1.822   1.131   4.771  0.00  0.00    +0.201 HD
ENDROOT
BRANCH   1   3
ATOM      3  C   LIG     1       1.644   0.312   6.603  0.00  0.00    +0.169 C 
ATOM      4  S   LIG     1       1.904  -1.019   7.635  0.00  0.00    -0.016 S 
BRANCH   3   5
ATOM      5  N   LIG     1       1.082   1.399   7.136  0.00  0.00    -0.321 N 
ATOM      6  H   LIG     1       0.697   1.226   8.053  0.00  0.00    +0.148 HD
BRANCH   5   7
ATOM      7  C   LIG     1       0.998   2.700   6.527  0.00  0.00    +0.074 C 
ATOM      8  C   LIG     1      -0.185   3.504   7.128  0.00  0.00    +0.037 C 
ATOM      9  C   LIG     1      -0.170   4.976   6.634  0.00  0.00    +0.086 C 
ATOM     10  N   LIG     1       1.145   5.648   6.897  0.00  0.00    -0.298 NA
ATOM     11  C   LIG     1       2.266   4.920   6.225  0.00  0.00    +0.086 C 
ATOM     12  C   LIG     1       2.349   3.451   6.718  0.00  0.00    +0.037 C 
BRANCH  10  13
ATOM     13  C   LIG     1       1.458   6.191   8.271  0.00  0.00    +0.119 C 
BRANCH  13  14
ATOM     14  C   LIG     1       0.426   6.039   9.337  0.00  0.00    -0.033 A 
ATOM     15  C   LIG     1       0.541   5.025  10.320  0.00  0.00    +0.005 A 
ATOM     16  C   LIG     1      -0.479   4.824  11.267  0.00  0.00    +0.000 A 
ATOM     17  C   LIG     1      -1.613   5.655  11.268  0.00  0.00    +0.000 A 
ATOM     18  C   LIG     1      -1.723   6.691  10.324  0.00  0.00    +0.000 A 
ATOM     19  C   LIG     1      -0.707   6.888   9.370  0.00  0.00    +0.005 A 
ENDBRANCH  13  14
ENDBRANCH  10  13
ENDBRANCH   5   7
ENDBRANCH   3   5
ENDBRANCH   1   3
BRANCH   1  20
ATOM     20  N   LIG     1       2.406  -0.689   4.640  0.00  0.00    +0.073 NA
BRANCH  20  24
ATOM     21  C   LIG     1       2.167  -0.796   0.575  0.00  0.00    +0.127 C 
ATOM     22  C   LIG     1       2.776  -1.861   1.273  0.00  0.00    +0.085 C 
ATOM     23  C   LIG     1       2.951  -1.780   2.672  0.00  0.00    +0.082 C 
ATOM     24  C   LIG     1       2.461  -0.678   3.353  0.00  0.00    +0.325 C 
ATOM     25  N   LIG     1       1.989   0.363   2.655  0.00  0.00    -0.206 N 
ATOM     26  H   LIG     1       1.781   1.211   3.162  0.00  0.00    +0.298 HD
ATOM     27  C   LIG     1       1.779   0.334   1.317  0.00  0.00    +0.212 C 
BRANCH  21  29
ATOM     28  O   LIG     1       0.462  -1.561  -1.447  0.00  0.00    -0.153 OA
ATOM     29  S   LIG     1       1.872  -0.846  -1.169  0.00  0.00    +0.059 S 
ATOM     30  O   LIG     1       1.840   0.644  -1.764  0.00  0.00    -0.153 OA
BRANCH  29  31
ATOM     31  N   LIG     1       3.167  -1.751  -1.956  0.00  0.00    -0.187 NA
ATOM     32  H   LIG     1       4.003  -2.165  -1.569  0.00  0.00    +0.148 HD
BRANCH  31  33
ATOM     33  C   LIG     1       3.009  -1.935  -3.414  0.00  0.00    +0.077 C 
ATOM     34  C   LIG     1       3.184  -0.654  -4.263  0.00  0.00    +0.020 C 
ATOM     35  C   LIG     1       3.727  -1.117  -5.633  0.00  0.00    +0.002 C 
ATOM     36  C   LIG     1       4.141  -2.595  -5.464  0.00  0.00    +0.002 C 
ATOM     37  C   LIG     1       4.119  -2.860  -3.950  0.00  0.00    +0.020 C 
ENDBRANCH  31  33
ENDBRANCH  29  31
ENDBRANCH  21  29
ENDBRANCH  20  24
ENDBRANCH   1  20
TORSDOF 10
