REMARK    Small molecule (ligand)
REMARK    Compound: Z96057842_1_T2
REMARK    SMILES: CN1N(C(=O)C(NC(=S)NNC(=S)NCCSC2=CC=CC=C2)=C1C)C1=CC=CC=C1
REMARK    The ligand was originally not a salt, therefore no desalting was carried out.
REMARK    The tautomeric state was generated by cxcalc version 18.20.0 of ChemAxons JChem Suite.
REMARK    Protonation state was generated at pH 7.4 by cxcalc version 18.20.0 of ChemAxons JChem Suite.
REMARK    Generation of the 3D conformation was carried out by molconvert version 18.20.0 of ChemAxons JChem Suite.
REMARK    Generation of the the target format file (pdbqt) was carried out by Open Babel version 2.4.1.
REMARK    Created on Tue Nov 13 12:59:01 EST 2018
REMARK  13 active torsions:
REMARK  status: ('A' for Active; 'I' for Inactive)
REMARK    1  A    between atoms: _1  and  _2
REMARK    2  A    between atoms: _3  and  _26
REMARK    3  A    between atoms: _6  and  _7
REMARK    4  A    between atoms: _7  and  _8
REMARK    5  A    between atoms: _8  and  _10
REMARK    6  A    between atoms: _10  and  _11
REMARK    7  A    between atoms: _11  and  _12
REMARK    8  A    between atoms: _12  and  _14
REMARK    9  A    between atoms: _14  and  _15
REMARK   10  A    between atoms: _15  and  _16
REMARK   11  A    between atoms: _16  and  _17
REMARK   12  A    between atoms: _17  and  _18
REMARK   13  A    between atoms: _24  and  _25
REMARK                            x       y       z     vdW  Elec       q    Type
REMARK                         _______ _______ _______ _____ _____    ______ ____
ROOT
ATOM      1  C   LIG     1      -3.292  -2.689   2.797  0.00  0.00    +0.151 C 
ATOM      2  S   LIG     1      -3.178  -1.145   3.499  0.00  0.00    -0.017 S 
ENDROOT
BRANCH   1   3
ATOM      3  N   LIG     1      -2.503  -2.934   1.756  0.00  0.00    -0.290 N 
ATOM      4  H   LIG     1      -1.573  -2.544   1.825  0.00  0.00    +0.154 HD
BRANCH   3   9
ATOM      5  C   LIG     1      -2.022  -5.473  -2.383  0.00  0.00    +0.171 C 
ATOM      6  N   LIG     1      -2.627  -4.767  -1.282  0.00  0.00    -0.282 N 
ATOM      7  C   LIG     1      -1.920  -4.135  -0.307  0.00  0.00    +0.059 A 
ATOM      8  C   LIG     1      -0.444  -4.003  -0.251  0.00  0.00    +0.067 C 
ATOM      9  C   LIG     1      -2.826  -3.645   0.634  0.00  0.00    +0.121 A 
ATOM     10  C   LIG     1      -4.078  -3.994   0.133  0.00  0.00    +0.293 A 
ATOM     11  O   LIG     1      -5.182  -3.686   0.642  0.00  0.00    -0.264 OA
ATOM     12  N   LIG     1      -3.912  -4.657  -1.031  0.00  0.00    -0.216 N 
BRANCH  12  13
ATOM     13  C   LIG     1      -4.957  -5.063  -1.821  0.00  0.00    +0.067 A 
ATOM     14  C   LIG     1      -5.879  -6.032  -1.363  0.00  0.00    +0.028 A 
ATOM     15  C   LIG     1      -6.944  -6.450  -2.185  0.00  0.00    +0.002 A 
ATOM     16  C   LIG     1      -7.097  -5.902  -3.471  0.00  0.00    +0.000 A 
ATOM     17  C   LIG     1      -6.195  -4.926  -3.931  0.00  0.00    +0.002 A 
ATOM     18  C   LIG     1      -5.133  -4.507  -3.108  0.00  0.00    +0.028 A 
ENDBRANCH  12  13
ENDBRANCH   3   9
ENDBRANCH   1   3
BRANCH   1  19
ATOM     19  N   LIG     1      -4.142  -3.553   3.333  0.00  0.00    -0.246 N 
ATOM     20  H   LIG     1      -5.047  -3.230   3.644  0.00  0.00    +0.172 HD
BRANCH  19  21
ATOM     21  N   LIG     1      -3.862  -4.819   3.482  0.00  0.00    -0.247 N 
ATOM     22  H   LIG     1      -2.902  -5.102   3.349  0.00  0.00    +0.172 HD
BRANCH  21  23
ATOM     23  C   LIG     1      -4.764  -5.737   3.796  0.00  0.00    +0.147 C 
ATOM     24  S   LIG     1      -6.373  -5.587   3.237  0.00  0.00    -0.017 S 
BRANCH  23  25
ATOM     25  N   LIG     1      -4.332  -6.770   4.525  0.00  0.00    -0.325 N 
ATOM     26  H   LIG     1      -3.434  -6.598   4.955  0.00  0.00    +0.148 HD
BRANCH  25  27
ATOM     27  C   LIG     1      -5.009  -8.015   4.724  0.00  0.00    +0.114 C 
BRANCH  27  28
ATOM     28  C   LIG     1      -4.476  -8.786   5.955  0.00  0.00    +0.093 C 
BRANCH  28  29
ATOM     29  S   LIG     1      -5.253 -10.437   6.009  0.00  0.00    -0.124 S 
BRANCH  29  30
ATOM     30  C   LIG     1      -4.883 -11.095   7.594  0.00  0.00    +0.008 A 
ATOM     31  C   LIG     1      -3.651 -11.736   7.845  0.00  0.00    +0.015 A 
ATOM     32  C   LIG     1      -3.397 -12.304   9.108  0.00  0.00    +0.001 A 
ATOM     33  C   LIG     1      -4.367 -12.225  10.126  0.00  0.00    +0.000 A 
ATOM     34  C   LIG     1      -5.598 -11.592   9.876  0.00  0.00    +0.001 A 
ATOM     35  C   LIG     1      -5.855 -11.025   8.614  0.00  0.00    +0.015 A 
ENDBRANCH  29  30
ENDBRANCH  28  29
ENDBRANCH  27  28
ENDBRANCH  25  27
ENDBRANCH  23  25
ENDBRANCH  21  23
ENDBRANCH  19  21
ENDBRANCH   1  19
TORSDOF 11
