REMARK    Small molecule (ligand)
REMARK    Compound: PV-001869650747_1_T1
REMARK    SMILES: COC1=CC=C(C=C1)C1=NN=C(S)N1CC(=O)NNC(=S)NC1=CC=C(C=C1)N(C)C
REMARK    The ligand was originally not a salt, therefore no desalting was carried out.
REMARK    The tautomeric state was generated by cxcalc version 18.20.0 of ChemAxons JChem Suite.
REMARK    Protonation state was generated at pH 7.4 by cxcalc version 18.20.0 of ChemAxons JChem Suite.
REMARK    Generation of the 3D conformation was carried out by molconvert version 18.20.0 of ChemAxons JChem Suite.
REMARK    Generation of the the target format file (pdbqt) was carried out by Open Babel version 2.4.1.
REMARK    Created on Tue Nov 13 12:59:24 EST 2018
REMARK  13 active torsions:
REMARK  status: ('A' for Active; 'I' for Inactive)
REMARK    1  A    between atoms: _1  and  _2
REMARK    2  A    between atoms: _2  and  _3
REMARK    3  A    between atoms: _6  and  _9
REMARK    4  A    between atoms: _12  and  _13
REMARK    5  A    between atoms: _14  and  _15
REMARK    6  A    between atoms: _15  and  _16
REMARK    7  A    between atoms: _18  and  _19
REMARK    8  A    between atoms: _19  and  _20
REMARK    9  A    between atoms: _20  and  _22
REMARK   10  A    between atoms: _22  and  _23
REMARK   11  A    between atoms: _26  and  _29
REMARK   12  A    between atoms: _29  and  _30
REMARK   13  A    between atoms: _29  and  _31
REMARK                            x       y       z     vdW  Elec       q    Type
REMARK                         _______ _______ _______ _____ _____    ______ ____
ROOT
ATOM      1  C   LIG     1       0.923   3.654   4.806  0.00  0.00    +0.249 C 
ATOM      2  N   LIG     1       1.829   3.608   5.815  0.00  0.00    -0.234 N 
ATOM      3  H   LIG     1       1.683   4.155   6.652  0.00  0.00    +0.173 HD
ATOM      4  O   LIG     1       1.167   3.040   3.741  0.00  0.00    -0.272 OA
ENDROOT
BRANCH   2   5
ATOM      5  N   LIG     1       2.929   2.827   5.702  0.00  0.00    -0.246 N 
ATOM      6  H   LIG     1       3.089   2.268   4.876  0.00  0.00    +0.172 HD
BRANCH   5   7
ATOM      7  C   LIG     1       3.800   2.848   6.772  0.00  0.00    +0.151 C 
ATOM      8  S   LIG     1       3.222   2.553   8.347  0.00  0.00    -0.017 S 
BRANCH   7   9
ATOM      9  N   LIG     1       5.110   3.069   6.618  0.00  0.00    -0.296 N 
ATOM     10  H   LIG     1       5.621   3.238   7.473  0.00  0.00    +0.154 HD
BRANCH   9  11
ATOM     11  C   LIG     1       5.806   3.088   5.438  0.00  0.00    +0.033 A 
ATOM     12  C   LIG     1       5.518   2.245   4.343  0.00  0.00    +0.025 A 
ATOM     13  C   LIG     1       6.186   2.405   3.117  0.00  0.00    +0.025 A 
ATOM     14  C   LIG     1       7.195   3.390   2.924  0.00  0.00    +0.029 A 
ATOM     15  C   LIG     1       7.534   4.156   4.076  0.00  0.00    +0.025 A 
ATOM     16  C   LIG     1       6.861   4.008   5.303  0.00  0.00    +0.025 A 
BRANCH  14  17
ATOM     17  N   LIG     1       7.803   3.603   1.671  0.00  0.00    -0.336 N 
ATOM     18  C   LIG     1       7.310   2.941   0.477  0.00  0.00    +0.129 C 
ATOM     19  C   LIG     1       8.906   4.535   1.515  0.00  0.00    +0.129 C 
ENDBRANCH  14  17
ENDBRANCH   9  11
ENDBRANCH   7   9
ENDBRANCH   5   7
ENDBRANCH   2   5
BRANCH   1  20
ATOM     20  C   LIG     1      -0.326   4.442   4.913  0.00  0.00    +0.223 C 
BRANCH  20  22
ATOM     21  C   LIG     1      -1.983   2.553   4.592  0.00  0.00    +0.165 A 
ATOM     22  N   LIG     1      -1.489   3.641   5.237  0.00  0.00    -0.293 N 
ATOM     23  C   LIG     1      -2.318   3.815   6.291  0.00  0.00    +0.189 A 
ATOM     24  N   LIG     1      -3.242   2.845   6.303  0.00  0.00    -0.122 NA
ATOM     25  N   LIG     1      -3.037   2.085   5.282  0.00  0.00    -0.128 NA
BRANCH  21  29
ATOM     26  C   LIG     1      -0.528   0.625   1.098  0.00  0.00    +0.120 A 
ATOM     27  C   LIG     1      -0.818   2.004   1.069  0.00  0.00    +0.046 A 
ATOM     28  C   LIG     1      -1.325   2.647   2.215  0.00  0.00    +0.015 A 
ATOM     29  C   LIG     1      -1.531   1.921   3.411  0.00  0.00    +0.020 A 
ATOM     30  C   LIG     1      -1.274   0.530   3.421  0.00  0.00    +0.015 A 
ATOM     31  C   LIG     1      -0.778  -0.113   2.273  0.00  0.00    +0.046 A 
BRANCH  26  33
ATOM     32  C   LIG     1       1.413  -0.021  -0.037  0.00  0.00    +0.277 C 
ATOM     33  O   LIG     1      -0.027   0.001  -0.014  0.00  0.00    -0.495 OA
ENDBRANCH  26  33
ENDBRANCH  21  29
BRANCH  23  34
ATOM     34  S   LIG     1      -2.303   5.061   7.506  0.00  0.00    -0.103 S 
ATOM     35  H   LIG     1      -2.310   4.508   8.704  0.00  0.00    +0.110 HD
ENDBRANCH  23  34
ENDBRANCH  20  22
ENDBRANCH   1  20
TORSDOF 10
