REMARK    Small molecule (ligand)
REMARK    Compound: PV-001822274010_1_T3
REMARK    SMILES: SC1=NN=C(N1CC(=O)NNC(=S)NCCC1=CC=CS1)C1=CC=C(Cl)C=C1
REMARK    The ligand was originally not a salt, therefore no desalting was carried out.
REMARK    The tautomeric state was generated by cxcalc version 18.20.0 of ChemAxons JChem Suite.
REMARK    Protonation state was generated at pH 7.4 by cxcalc version 18.20.0 of ChemAxons JChem Suite.
REMARK    Generation of the 3D conformation was carried out by molconvert version 18.20.0 of ChemAxons JChem Suite.
REMARK    Generation of the the target format file (pdbqt) was carried out by Open Babel version 2.4.1.
REMARK    Created on Tue Nov 13 12:59:36 EST 2018
REMARK  10 active torsions:
REMARK  status: ('A' for Active; 'I' for Inactive)
REMARK    1  A    between atoms: _1  and  _2
REMARK    2  A    between atoms: _5  and  _22
REMARK    3  A    between atoms: _6  and  _7
REMARK    4  A    between atoms: _7  and  _8
REMARK    5  A    between atoms: _10  and  _11
REMARK    6  A    between atoms: _11  and  _12
REMARK    7  A    between atoms: _12  and  _14
REMARK    8  A    between atoms: _14  and  _15
REMARK    9  A    between atoms: _15  and  _16
REMARK   10  A    between atoms: _16  and  _17
REMARK                            x       y       z     vdW  Elec       q    Type
REMARK                         _______ _______ _______ _____ _____    ______ ____
ROOT
ATOM      1  C   LIG     1       2.569   2.370   3.414  0.00  0.00    +0.249 C 
ATOM      2  N   LIG     1       2.477   2.840   4.680  0.00  0.00    -0.234 N 
ATOM      3  H   LIG     1       3.121   3.553   4.993  0.00  0.00    +0.173 HD
ATOM      4  O   LIG     1       1.768   1.487   3.026  0.00  0.00    -0.272 OA
ENDROOT
BRANCH   2   5
ATOM      5  N   LIG     1       1.541   2.375   5.537  0.00  0.00    -0.246 N 
ATOM      6  H   LIG     1       1.305   1.396   5.604  0.00  0.00    +0.172 HD
BRANCH   5   7
ATOM      7  C   LIG     1       0.951   3.353   6.296  0.00  0.00    +0.147 C 
ATOM      8  S   LIG     1       0.008   4.559   5.539  0.00  0.00    -0.017 S 
BRANCH   7   9
ATOM      9  N   LIG     1       1.107   3.237   7.610  0.00  0.00    -0.325 N 
ATOM     10  H   LIG     1       1.873   2.628   7.861  0.00  0.00    +0.148 HD
BRANCH   9  11
ATOM     11  C   LIG     1       0.317   3.874   8.614  0.00  0.00    +0.108 C 
BRANCH  11  12
ATOM     12  C   LIG     1       0.703   3.316  10.006  0.00  0.00    +0.061 C 
BRANCH  12  13
ATOM     13  C   LIG     1      -0.233   3.741  11.063  0.00  0.00    -0.009 A 
ATOM     14  S   LIG     1      -1.559   2.790  11.711  0.00  0.00    -0.102 S 
ATOM     15  C   LIG     1      -2.113   4.003  12.848  0.00  0.00    +0.045 A 
ATOM     16  C   LIG     1      -1.278   5.113  12.699  0.00  0.00    +0.008 A 
ATOM     17  C   LIG     1      -0.266   4.973  11.730  0.00  0.00    +0.011 A 
ENDBRANCH  12  13
ENDBRANCH  11  12
ENDBRANCH   9  11
ENDBRANCH   7   9
ENDBRANCH   5   7
ENDBRANCH   2   5
BRANCH   1  18
ATOM     18  C   LIG     1       3.629   2.854   2.500  0.00  0.00    +0.223 C 
BRANCH  18  20
ATOM     19  C   LIG     1       3.525   5.027   1.266  0.00  0.00    +0.189 A 
ATOM     20  N   LIG     1       3.145   3.747   1.473  0.00  0.00    -0.293 N 
ATOM     21  C   LIG     1       2.204   3.512   0.526  0.00  0.00    +0.165 A 
ATOM     22  N   LIG     1       2.005   4.643  -0.171  0.00  0.00    -0.128 NA
ATOM     23  N   LIG     1       2.803   5.555   0.270  0.00  0.00    -0.122 NA
BRANCH  21  24
ATOM     24  C   LIG     1       1.480   2.330   0.251  0.00  0.00    +0.019 A 
ATOM     25  C   LIG     1       0.071   2.388   0.156  0.00  0.00    +0.013 A 
ATOM     26  C   LIG     1      -0.678   1.229  -0.111  0.00  0.00    +0.021 A 
ATOM     27  C   LIG     1      -0.025  -0.007  -0.289  0.00  0.00    +0.041 A 
ATOM     28 CL   LIG     1      -0.924  -1.395  -0.644  0.00  0.00    -0.084 Cl
ATOM     29  C   LIG     1       1.377  -0.079  -0.183  0.00  0.00    +0.021 A 
ATOM     30  C   LIG     1       2.126   1.085   0.070  0.00  0.00    +0.013 A 
ENDBRANCH  21  24
BRANCH  19  31
ATOM     31  S   LIG     1       4.750   5.951   2.086  0.00  0.00    -0.103 S 
ATOM     32  H   LIG     1       4.591   5.831   3.391  0.00  0.00    +0.110 HD
ENDBRANCH  19  31
ENDBRANCH  18  20
ENDBRANCH   1  18
TORSDOF 10
