REMARK    Small molecule (ligand)
REMARK    Compound: PV-001822274010_1_T1
REMARK    SMILES: ClC1=CC=C(C=C1)C1=NNC(=S)N1CC(=O)NNC(=S)NCCC1=CC=CS1
REMARK    The ligand was originally not a salt, therefore no desalting was carried out.
REMARK    The tautomeric state was generated by cxcalc version 18.20.0 of ChemAxons JChem Suite.
REMARK    Protonation state was generated at pH 7.4 by cxcalc version 18.20.0 of ChemAxons JChem Suite.
REMARK    Generation of the 3D conformation was carried out by molconvert version 18.20.0 of ChemAxons JChem Suite.
REMARK    Generation of the the target format file (pdbqt) was carried out by Open Babel version 2.4.1.
REMARK    Created on Tue Nov 13 12:59:33 EST 2018
REMARK  9 active torsions:
REMARK  status: ('A' for Active; 'I' for Inactive)
REMARK    1  A    between atoms: _5  and  _8
REMARK    2  A    between atoms: _13  and  _14
REMARK    3  A    between atoms: _14  and  _15
REMARK    4  A    between atoms: _17  and  _18
REMARK    5  A    between atoms: _18  and  _19
REMARK    6  A    between atoms: _19  and  _21
REMARK    7  A    between atoms: _21  and  _22
REMARK    8  A    between atoms: _22  and  _23
REMARK    9  A    between atoms: _23  and  _24
REMARK                            x       y       z     vdW  Elec       q    Type
REMARK                         _______ _______ _______ _____ _____    ______ ____
ROOT
ATOM      1  C   LIG     1       2.558   2.350   3.423  0.00  0.00    +0.249 C 
ATOM      2  N   LIG     1       2.470   2.808   4.697  0.00  0.00    -0.234 N 
ATOM      3  H   LIG     1       3.137   3.490   5.028  0.00  0.00    +0.173 HD
ATOM      4  O   LIG     1       1.733   1.494   3.027  0.00  0.00    -0.272 OA
ENDROOT
BRANCH   2   5
ATOM      5  N   LIG     1       1.501   2.365   5.535  0.00  0.00    -0.246 N 
ATOM      6  H   LIG     1       1.233   1.393   5.586  0.00  0.00    +0.172 HD
BRANCH   5   7
ATOM      7  C   LIG     1       0.927   3.351   6.296  0.00  0.00    +0.147 C 
ATOM      8  S   LIG     1      -0.017   4.556   5.540  0.00  0.00    -0.017 S 
BRANCH   7   9
ATOM      9  N   LIG     1       1.092   3.242   7.611  0.00  0.00    -0.325 N 
ATOM     10  H   LIG     1       1.862   2.636   7.858  0.00  0.00    +0.148 HD
BRANCH   9  11
ATOM     11  C   LIG     1       0.309   3.879   8.621  0.00  0.00    +0.108 C 
BRANCH  11  12
ATOM     12  C   LIG     1       0.700   3.320  10.010  0.00  0.00    +0.061 C 
BRANCH  12  13
ATOM     13  C   LIG     1      -0.227   3.745  11.076  0.00  0.00    -0.009 A 
ATOM     14  S   LIG     1      -1.547   2.788  11.727  0.00  0.00    -0.102 S 
ATOM     15  C   LIG     1      -2.116   4.004  12.853  0.00  0.00    +0.045 A 
ATOM     16  C   LIG     1      -1.281   5.115  12.706  0.00  0.00    +0.008 A 
ATOM     17  C   LIG     1      -0.261   4.977  11.745  0.00  0.00    +0.011 A 
ENDBRANCH  12  13
ENDBRANCH  11  12
ENDBRANCH   9  11
ENDBRANCH   7   9
ENDBRANCH   5   7
ENDBRANCH   2   5
BRANCH   1  18
ATOM     18  C   LIG     1       3.632   2.809   2.511  0.00  0.00    +0.223 C 
BRANCH  18  20
ATOM     19  C   LIG     1       2.253   3.476   0.498  0.00  0.00    +0.163 A 
ATOM     20  N   LIG     1       3.175   3.705   1.469  0.00  0.00    -0.294 N 
ATOM     21  C   LIG     1       3.576   4.981   1.267  0.00  0.00    +0.176 A 
ATOM     22  S   LIG     1       4.761   5.905   2.131  0.00  0.00    -0.011 S 
ATOM     23  N   LIG     1       2.888   5.486   0.238  0.00  0.00    -0.254 N 
ATOM     24  H   LIG     1       2.963   6.421  -0.136  0.00  0.00    +0.191 HD
ATOM     25  N   LIG     1       2.090   4.593  -0.233  0.00  0.00    -0.153 NA
BRANCH  19  30
ATOM     26 CL   LIG     1      -0.983  -1.381  -0.604  0.00  0.00    -0.084 Cl
ATOM     27  C   LIG     1      -0.053  -0.005  -0.282  0.00  0.00    +0.041 A 
ATOM     28  C   LIG     1      -0.679   1.244  -0.106  0.00  0.00    +0.021 A 
ATOM     29  C   LIG     1       0.095   2.392   0.144  0.00  0.00    +0.013 A 
ATOM     30  C   LIG     1       1.503   2.308   0.228  0.00  0.00    +0.019 A 
ATOM     31  C   LIG     1       2.124   1.051   0.044  0.00  0.00    +0.013 A 
ATOM     32  C   LIG     1       1.350  -0.099  -0.199  0.00  0.00    +0.021 A 
ENDBRANCH  19  30
ENDBRANCH  18  20
ENDBRANCH   1  18
TORSDOF 9
