REMARK    Small molecule (ligand)
REMARK    Compound: PV-001869650747_1_T2
REMARK    SMILES: COC1=CC=C(C=C1)C1=NNC(=S)N1CC(=O)NNC(=S)NC1=CC=C(C=C1)N(C)C
REMARK    The ligand was originally not a salt, therefore no desalting was carried out.
REMARK    The tautomeric state was generated by cxcalc version 18.20.0 of ChemAxons JChem Suite.
REMARK    Protonation state was generated at pH 7.4 by cxcalc version 18.20.0 of ChemAxons JChem Suite.
REMARK    Generation of the 3D conformation was carried out by molconvert version 18.20.0 of ChemAxons JChem Suite.
REMARK    Generation of the the target format file (pdbqt) was carried out by Open Babel version 2.4.1.
REMARK    Created on Tue Nov 13 12:59:25 EST 2018
REMARK  12 active torsions:
REMARK  status: ('A' for Active; 'I' for Inactive)
REMARK    1  A    between atoms: _1  and  _2
REMARK    2  A    between atoms: _2  and  _3
REMARK    3  A    between atoms: _6  and  _9
REMARK    4  A    between atoms: _14  and  _15
REMARK    5  A    between atoms: _15  and  _16
REMARK    6  A    between atoms: _18  and  _19
REMARK    7  A    between atoms: _19  and  _20
REMARK    8  A    between atoms: _20  and  _22
REMARK    9  A    between atoms: _22  and  _23
REMARK   10  A    between atoms: _26  and  _29
REMARK   11  A    between atoms: _29  and  _30
REMARK   12  A    between atoms: _29  and  _31
REMARK                            x       y       z     vdW  Elec       q    Type
REMARK                         _______ _______ _______ _____ _____    ______ ____
ROOT
ATOM      1  C   LIG     1       0.937   3.643   4.791  0.00  0.00    +0.249 C 
ATOM      2  N   LIG     1       1.851   3.622   5.794  0.00  0.00    -0.234 N 
ATOM      3  H   LIG     1       1.717   4.194   6.615  0.00  0.00    +0.173 HD
ATOM      4  O   LIG     1       1.167   2.995   3.741  0.00  0.00    -0.272 OA
ENDROOT
BRANCH   2   5
ATOM      5  N   LIG     1       2.945   2.830   5.691  0.00  0.00    -0.246 N 
ATOM      6  H   LIG     1       3.105   2.264   4.870  0.00  0.00    +0.172 HD
BRANCH   5   7
ATOM      7  C   LIG     1       3.811   2.849   6.763  0.00  0.00    +0.151 C 
ATOM      8  S   LIG     1       3.223   2.583   8.339  0.00  0.00    -0.017 S 
BRANCH   7   9
ATOM      9  N   LIG     1       5.124   3.055   6.616  0.00  0.00    -0.296 N 
ATOM     10  H   LIG     1       5.634   3.212   7.473  0.00  0.00    +0.154 HD
BRANCH   9  11
ATOM     11  C   LIG     1       5.825   3.072   5.441  0.00  0.00    +0.033 A 
ATOM     12  C   LIG     1       5.540   2.227   4.348  0.00  0.00    +0.025 A 
ATOM     13  C   LIG     1       6.206   2.391   3.122  0.00  0.00    +0.025 A 
ATOM     14  C   LIG     1       7.210   3.381   2.928  0.00  0.00    +0.029 A 
ATOM     15  C   LIG     1       7.550   4.145   4.080  0.00  0.00    +0.025 A 
ATOM     16  C   LIG     1       6.879   3.993   5.307  0.00  0.00    +0.025 A 
BRANCH  14  17
ATOM     17  N   LIG     1       7.811   3.602   1.673  0.00  0.00    -0.336 N 
ATOM     18  C   LIG     1       7.312   2.948   0.478  0.00  0.00    +0.129 C 
ATOM     19  C   LIG     1       8.906   4.539   1.514  0.00  0.00    +0.129 C 
ENDBRANCH  14  17
ENDBRANCH   9  11
ENDBRANCH   7   9
ENDBRANCH   5   7
ENDBRANCH   2   5
BRANCH   1  20
ATOM     20  C   LIG     1      -0.305   4.443   4.888  0.00  0.00    +0.223 C 
BRANCH  20  22
ATOM     21  C   LIG     1      -1.997   2.585   4.562  0.00  0.00    +0.163 A 
ATOM     22  N   LIG     1      -1.480   3.661   5.213  0.00  0.00    -0.294 N 
ATOM     23  C   LIG     1      -2.304   3.850   6.270  0.00  0.00    +0.176 A 
ATOM     24  S   LIG     1      -2.240   5.058   7.512  0.00  0.00    -0.011 S 
ATOM     25  N   LIG     1      -3.249   2.905   6.247  0.00  0.00    -0.254 N 
ATOM     26  H   LIG     1      -3.999   2.787   6.913  0.00  0.00    +0.191 HD
ATOM     27  N   LIG     1      -3.075   2.136   5.229  0.00  0.00    -0.153 NA
BRANCH  21  31
ATOM     28  C   LIG     1      -0.530   0.612   1.097  0.00  0.00    +0.120 A 
ATOM     29  C   LIG     1      -0.824   1.990   1.052  0.00  0.00    +0.046 A 
ATOM     30  C   LIG     1      -1.332   2.647   2.189  0.00  0.00    +0.015 A 
ATOM     31  C   LIG     1      -1.541   1.937   3.392  0.00  0.00    +0.019 A 
ATOM     32  C   LIG     1      -1.280   0.547   3.418  0.00  0.00    +0.015 A 
ATOM     33  C   LIG     1      -0.782  -0.111   2.279  0.00  0.00    +0.046 A 
BRANCH  28  35
ATOM     34  C   LIG     1       1.416  -0.031  -0.030  0.00  0.00    +0.277 C 
ATOM     35  O   LIG     1      -0.023  -0.024  -0.004  0.00  0.00    -0.495 OA
ENDBRANCH  28  35
ENDBRANCH  21  31
ENDBRANCH  20  22
ENDBRANCH   1  20
TORSDOF 9
