REMARK    Small molecule (ligand)
REMARK    Compound: PV-001955441328_2_T1
REMARK    SMILES: CC(C)N1C(=S)NN=C1CCNC(=O)N[C@H](C)C1=CC(F)=CC=C1N1CCC(O)CC1
REMARK    The ligand was originally not a salt, therefore no desalting was carried out.
REMARK    The tautomeric state was generated by cxcalc version 18.20.0 of ChemAxons JChem Suite.
REMARK    Protonation state was generated at pH 7.4 by cxcalc version 18.20.0 of ChemAxons JChem Suite.
REMARK    Generation of the 3D conformation was carried out by molconvert version 18.20.0 of ChemAxons JChem Suite.
REMARK    Generation of the the target format file (pdbqt) was carried out by Open Babel version 2.4.1.
REMARK    Created on Tue Nov 13 12:59:14 EST 2018
REMARK  11 active torsions:
REMARK  status: ('A' for Active; 'I' for Inactive)
REMARK    1  A    between atoms: _1  and  _2
REMARK    2  A    between atoms: _2  and  _3
REMARK    3  A    between atoms: _2  and  _4
REMARK    4  A    between atoms: _9  and  _10
REMARK    5  A    between atoms: _10  and  _11
REMARK    6  A    between atoms: _11  and  _12
REMARK    7  A    between atoms: _15  and  _16
REMARK    8  A    between atoms: _16  and  _17
REMARK    9  A    between atoms: _16  and  _18
REMARK   10  A    between atoms: _24  and  _25
REMARK   11  A    between atoms: _28  and  _29
REMARK                            x       y       z     vdW  Elec       q    Type
REMARK                         _______ _______ _______ _____ _____    ______ ____
ROOT
ATOM      1  N   LIG     1       5.306  -2.270   3.726  0.00  0.00    -0.299 N 
ATOM      2  H   LIG     1       4.843  -3.038   3.261  0.00  0.00    +0.150 HD
ATOM      3  C   LIG     1       4.825  -2.008   4.967  0.00  0.00    +0.300 C 
ATOM      4  N   LIG     1       3.663  -2.622   5.301  0.00  0.00    -0.293 N 
ATOM      5  H   LIG     1       3.303  -3.239   4.587  0.00  0.00    +0.151 HD
ATOM      6  O   LIG     1       5.389  -1.204   5.748  0.00  0.00    -0.253 OA
ENDROOT
BRANCH   4   7
ATOM      7  C   LIG     1       2.954  -2.459   6.535  0.00  0.00    +0.103 C 
ATOM      8  C   LIG     1       1.932  -3.618   6.671  0.00  0.00    +0.033 C 
BRANCH   7   9
ATOM      9  C   LIG     1       2.302  -1.119   6.767  0.00  0.00    -0.004 A 
ATOM     10  C   LIG     1       1.907  -0.190   5.752  0.00  0.00    +0.035 A 
ATOM     11  C   LIG     1       1.319   1.044   6.122  0.00  0.00    +0.026 A 
ATOM     12  C   LIG     1       1.116   1.378   7.468  0.00  0.00    +0.040 A 
ATOM     13  C   LIG     1       1.475   0.468   8.471  0.00  0.00    +0.124 A 
ATOM     14  F   LIG     1       1.264   0.763   9.724  0.00  0.00    -0.205 F 
ATOM     15  C   LIG     1       2.061  -0.761   8.120  0.00  0.00    +0.045 A 
BRANCH  10  16
ATOM     16  N   LIG     1       2.028  -0.409   4.401  0.00  0.00    -0.329 N 
ATOM     17  C   LIG     1       2.953   0.374   3.603  0.00  0.00    +0.107 C 
ATOM     18  C   LIG     1       2.228   1.122   2.458  0.00  0.00    +0.050 C 
ATOM     19  C   LIG     1       1.355   0.132   1.642  0.00  0.00    +0.118 C 
ATOM     20  C   LIG     1       0.382  -0.631   2.580  0.00  0.00    +0.050 C 
ATOM     21  C   LIG     1       1.152  -1.340   3.725  0.00  0.00    +0.107 C 
BRANCH  19  22
ATOM     22  O   LIG     1       0.636   0.826   0.626  0.00  0.00    -0.392 OA
ATOM     23  H   LIG     1       0.220   0.192   0.037  0.00  0.00    +0.210 HD
ENDBRANCH  19  22
ENDBRANCH  10  16
ENDBRANCH   7   9
ENDBRANCH   4   7
BRANCH   1  24
ATOM     24  C   LIG     1       6.365  -1.578   3.062  0.00  0.00    +0.113 C 
BRANCH  24  25
ATOM     25  C   LIG     1       7.537  -2.525   2.699  0.00  0.00    +0.095 C 
BRANCH  25  27
ATOM     26  N   LIG     1       7.963  -2.370   0.176  0.00  0.00    -0.305 N 
ATOM     27  C   LIG     1       8.232  -2.064   1.473  0.00  0.00    +0.134 A 
ATOM     28  N   LIG     1       9.259  -1.199   1.528  0.00  0.00    -0.158 NA
ATOM     29  N   LIG     1       9.636  -0.972   0.319  0.00  0.00    -0.254 N 
ATOM     30  H   LIG     1      10.397  -0.352   0.080  0.00  0.00    +0.191 HD
ATOM     31  C   LIG     1       8.879  -1.670  -0.535  0.00  0.00    +0.176 A 
ATOM     32  S   LIG     1       9.139  -1.602  -2.247  0.00  0.00    -0.011 S 
BRANCH  26  34
ATOM     33  C   LIG     1       7.493  -4.530  -0.984  0.00  0.00    +0.030 C 
ATOM     34  C   LIG     1       6.917  -3.252  -0.319  0.00  0.00    +0.085 C 
ATOM     35  C   LIG     1       5.887  -2.528  -1.224  0.00  0.00    +0.030 C 
ENDBRANCH  26  34
ENDBRANCH  25  27
ENDBRANCH  24  25
ENDBRANCH   1  24
TORSDOF 8
