REMARK    Small molecule (ligand)
REMARK    Compound: PV-001964785068_1_T3
REMARK    SMILES: OC1(CC(CNC(=O)NCCC2=NN=C(S)N2C2CC2)(C1)C1=CC=CC=C1)C(F)(F)F
REMARK    The ligand was originally not a salt, therefore no desalting was carried out.
REMARK    The tautomeric state was generated by cxcalc version 18.20.0 of ChemAxons JChem Suite.
REMARK    Protonation state was generated at pH 7.4 by cxcalc version 18.20.0 of ChemAxons JChem Suite.
REMARK    Generation of the 3D conformation was carried out by molconvert version 18.20.0 of ChemAxons JChem Suite.
REMARK    Generation of the the target format file (pdbqt) was carried out by Open Babel version 2.4.1.
REMARK    Created on Tue Nov 13 12:59:13 EST 2018
REMARK  10 active torsions:
REMARK  status: ('A' for Active; 'I' for Inactive)
REMARK    1  A    between atoms: _1  and  _2
REMARK    2  A    between atoms: _2  and  _28
REMARK    3  A    between atoms: _4  and  _5
REMARK    4  A    between atoms: _4  and  _22
REMARK    5  A    between atoms: _5  and  _6
REMARK    6  A    between atoms: _9  and  _10
REMARK    7  A    between atoms: _10  and  _11
REMARK    8  A    between atoms: _11  and  _12
REMARK    9  A    between atoms: _15  and  _16
REMARK   10  A    between atoms: _17  and  _18
REMARK                            x       y       z     vdW  Elec       q    Type
REMARK                         _______ _______ _______ _____ _____    ______ ____
ROOT
ATOM      1  N   LIG     1      -0.247  -1.627   2.071  0.00  0.00    -0.299 N 
ATOM      2  H   LIG     1      -1.167  -1.385   1.731  0.00  0.00    +0.150 HD
ATOM      3  C   LIG     1      -0.168  -1.920   3.398  0.00  0.00    +0.300 C 
ATOM      4  N   LIG     1      -1.278  -1.794   4.180  0.00  0.00    -0.299 N 
ATOM      5  H   LIG     1      -2.096  -1.418   3.722  0.00  0.00    +0.150 HD
ATOM      6  O   LIG     1       0.919  -2.305   3.896  0.00  0.00    -0.253 OA
ENDROOT
BRANCH   1   7
ATOM      7  C   LIG     1       0.883  -1.651   1.189  0.00  0.00    +0.117 C 
BRANCH   7  10
ATOM      8  C   LIG     1       1.208   0.045  -1.643  0.00  0.00    +0.162 C 
ATOM      9  C   LIG     1      -0.070  -0.265  -0.831  0.00  0.00    +0.057 C 
ATOM     10  C   LIG     1       0.517  -1.625  -0.330  0.00  0.00    +0.017 C 
ATOM     11  C   LIG     1       1.774  -1.325  -1.213  0.00  0.00    +0.057 C 
BRANCH  10  12
ATOM     12  C   LIG     1      -0.249  -2.870  -0.705  0.00  0.00    -0.040 A 
ATOM     13  C   LIG     1      -1.667  -2.901  -0.686  0.00  0.00    +0.004 A 
ATOM     14  C   LIG     1      -2.376  -4.069  -1.023  0.00  0.00    +0.000 A 
ATOM     15  C   LIG     1      -1.679  -5.239  -1.367  0.00  0.00    +0.000 A 
ATOM     16  C   LIG     1      -0.274  -5.246  -1.356  0.00  0.00    +0.000 A 
ATOM     17  C   LIG     1       0.430  -4.076  -1.017  0.00  0.00    +0.004 A 
ENDBRANCH  10  12
BRANCH   8  18
ATOM     18  C   LIG     1       2.006   1.310  -1.205  0.00  0.00    +0.418 C 
ATOM     19  F   LIG     1       1.300   2.441  -1.534  0.00  0.00    -0.168 F 
ATOM     20  F   LIG     1       2.258   1.355   0.145  0.00  0.00    -0.168 F 
ATOM     21  F   LIG     1       3.214   1.360  -1.855  0.00  0.00    -0.168 F 
ENDBRANCH   8  18
BRANCH   8  22
ATOM     22  O   LIG     1       0.955   0.068  -3.050  0.00  0.00    -0.380 OA
ATOM     23  H   LIG     1       0.895  -0.832  -3.379  0.00  0.00    +0.211 HD
ENDBRANCH   8  22
ENDBRANCH   7  10
ENDBRANCH   1   7
BRANCH   4  24
ATOM     24  C   LIG     1      -1.314  -2.163   5.564  0.00  0.00    +0.113 C 
BRANCH  24  25
ATOM     25  C   LIG     1      -2.539  -1.599   6.330  0.00  0.00    +0.095 C 
BRANCH  25  26
ATOM     26  C   LIG     1      -2.544  -1.993   7.765  0.00  0.00    +0.136 A 
ATOM     27  N   LIG     1      -3.602  -2.241   8.568  0.00  0.00    -0.303 N 
ATOM     28  C   LIG     1      -3.085  -2.645   9.745  0.00  0.00    +0.189 A 
ATOM     29  N   LIG     1      -1.749  -2.584   9.679  0.00  0.00    -0.123 NA
ATOM     30  N   LIG     1      -1.429  -2.190   8.492  0.00  0.00    -0.133 NA
BRANCH  27  31
ATOM     31  C   LIG     1      -4.993  -2.142   8.240  0.00  0.00    +0.091 C 
ATOM     32  C   LIG     1      -5.509  -0.793   7.700  0.00  0.00    +0.027 C 
ATOM     33  C   LIG     1      -5.899  -1.242   9.109  0.00  0.00    +0.027 C 
ENDBRANCH  27  31
BRANCH  28  34
ATOM     34  S   LIG     1      -3.929  -3.204  11.159  0.00  0.00    -0.103 S 
ATOM     35  H   LIG     1      -3.938  -4.524  11.174  0.00  0.00    +0.110 HD
ENDBRANCH  28  34
ENDBRANCH  25  26
ENDBRANCH  24  25
ENDBRANCH   4  24
TORSDOF 10
