REMARK    Small molecule (ligand)
REMARK    Compound: PV-001964785068_1_T2
REMARK    SMILES: OC1(CC(CNC(=O)NCCC2N=NC(=S)N2C2CC2)(C1)C1=CC=CC=C1)C(F)(F)F
REMARK    The ligand was originally not a salt, therefore no desalting was carried out.
REMARK    The tautomeric state was generated by cxcalc version 18.20.0 of ChemAxons JChem Suite.
REMARK    Protonation state was generated at pH 7.4 by cxcalc version 18.20.0 of ChemAxons JChem Suite.
REMARK    Generation of the 3D conformation was carried out by molconvert version 18.20.0 of ChemAxons JChem Suite.
REMARK    Generation of the the target format file (pdbqt) was carried out by Open Babel version 2.4.1.
REMARK    Created on Tue Nov 13 12:59:12 EST 2018
REMARK  9 active torsions:
REMARK  status: ('A' for Active; 'I' for Inactive)
REMARK    1  A    between atoms: _1  and  _2
REMARK    2  A    between atoms: _2  and  _28
REMARK    3  A    between atoms: _4  and  _5
REMARK    4  A    between atoms: _4  and  _22
REMARK    5  A    between atoms: _5  and  _6
REMARK    6  A    between atoms: _9  and  _10
REMARK    7  A    between atoms: _10  and  _11
REMARK    8  A    between atoms: _11  and  _12
REMARK    9  A    between atoms: _17  and  _18
REMARK                            x       y       z     vdW  Elec       q    Type
REMARK                         _______ _______ _______ _____ _____    ______ ____
ROOT
ATOM      1  C   LIG     1       1.881  -1.310   1.841  0.00  0.00    +0.117 C 
ENDROOT
BRANCH   1   2
ATOM      2  N   LIG     1       0.619  -1.356   2.521  0.00  0.00    -0.299 N 
ATOM      3  H   LIG     1      -0.245  -1.184   2.027  0.00  0.00    +0.150 HD
ATOM      4  C   LIG     1       0.489  -1.627   3.848  0.00  0.00    +0.300 C 
ATOM      5  N   LIG     1      -0.738  -1.570   4.438  0.00  0.00    -0.299 N 
ATOM      6  H   LIG     1      -1.489  -1.221   3.860  0.00  0.00    +0.150 HD
ATOM      7  O   LIG     1       1.500  -1.937   4.526  0.00  0.00    -0.253 OA
BRANCH   5   8
ATOM      8  C   LIG     1      -0.971  -1.976   5.792  0.00  0.00    +0.109 C 
BRANCH   8   9
ATOM      9  C   LIG     1      -2.362  -1.593   6.359  0.00  0.00    +0.067 C 
BRANCH   9  10
ATOM     10  C   LIG     1      -2.532  -2.079   7.833  0.00  0.00    +0.215 C 
ATOM     11  N   LIG     1      -3.789  -1.775   8.429  0.00  0.00    -0.283 N 
ATOM     12  C   LIG     1      -4.391  -2.920   8.689  0.00  0.00    +0.179 C 
ATOM     13  S   LIG     1      -5.957  -3.163   9.314  0.00  0.00    -0.015 S 
ATOM     14  N   LIG     1      -3.617  -3.887   8.396  0.00  0.00    -0.098 NA
ATOM     15  N   LIG     1      -2.573  -3.465   7.917  0.00  0.00    -0.173 NA
BRANCH  11  16
ATOM     16  C   LIG     1      -4.283  -0.455   8.688  0.00  0.00    +0.077 C 
ATOM     17  C   LIG     1      -3.390   0.481   9.523  0.00  0.00    +0.024 C 
ATOM     18  C   LIG     1      -4.684  -0.070  10.124  0.00  0.00    +0.024 C 
ENDBRANCH  11  16
ENDBRANCH   9  10
ENDBRANCH   8   9
ENDBRANCH   5   8
ENDBRANCH   1   2
BRANCH   1  21
ATOM     19  C   LIG     1       2.532   0.428  -0.909  0.00  0.00    +0.162 C 
ATOM     20  C   LIG     1       1.167   0.016  -0.307  0.00  0.00    +0.057 C 
ATOM     21  C   LIG     1       1.770  -1.301   0.281  0.00  0.00    +0.017 C 
ATOM     22  C   LIG     1       3.127  -0.899  -0.389  0.00  0.00    +0.057 C 
BRANCH  21  23
ATOM     23  C   LIG     1       1.166  -2.592  -0.207  0.00  0.00    -0.040 A 
ATOM     24  C   LIG     1      -0.230  -2.728  -0.409  0.00  0.00    +0.004 A 
ATOM     25  C   LIG     1      -0.788  -3.943  -0.852  0.00  0.00    +0.000 A 
ATOM     26  C   LIG     1       0.039  -5.053  -1.087  0.00  0.00    +0.000 A 
ATOM     27  C   LIG     1       1.419  -4.957  -0.844  0.00  0.00    +0.000 A 
ATOM     28  C   LIG     1       1.974  -3.742  -0.400  0.00  0.00    +0.004 A 
ENDBRANCH  21  23
BRANCH  19  29
ATOM     29  C   LIG     1       3.152   1.742  -0.350  0.00  0.00    +0.418 C 
ATOM     30  F   LIG     1       2.428   2.822  -0.793  0.00  0.00    -0.168 F 
ATOM     31  F   LIG     1       3.181   1.794   1.024  0.00  0.00    -0.168 F 
ATOM     32  F   LIG     1       4.442   1.884  -0.802  0.00  0.00    -0.168 F 
ENDBRANCH  19  29
BRANCH  19  33
ATOM     33  O   LIG     1       2.525   0.438  -2.340  0.00  0.00    -0.380 OA
ATOM     34  H   LIG     1       2.523  -0.464  -2.667  0.00  0.00    +0.211 HD
ENDBRANCH  19  33
ENDBRANCH   1  21
TORSDOF 9
