REMARK    Small molecule (ligand)
REMARK    Compound: Z1029559230_2_T1
REMARK    SMILES: C[C@@H](Nc1nc2ccccc2s1)C(=O)NNC(=S)NCCc1ccc2OCCOc2c1
REMARK    The ligand was originally not a salt, therefore no desalting was carried out.
REMARK    The tautomeric state was generated by cxcalc version 18.20.0 of ChemAxons JChem Suite.
REMARK    Protonation state was generated at pH 7.4 by cxcalc version 18.20.0 of ChemAxons JChem Suite.
REMARK    Generation of the 3D conformation was carried out by molconvert version 18.20.0 of ChemAxons JChem Suite.
REMARK    Generation of the the target format file (pdbqt) was carried out by Open Babel version 2.4.1.
REMARK    Created on Tue Nov 13 12:59:46 EST 2018
REMARK  9 active torsions:
REMARK  status: ('A' for Active; 'I' for Inactive)
REMARK    1  A    between atoms: _1  and  _2
REMARK    2  A    between atoms: _2  and  _3
REMARK    3  A    between atoms: _2  and  _13
REMARK    4  A    between atoms: _15  and  _16
REMARK    5  A    between atoms: _16  and  _17
REMARK    6  A    between atoms: _17  and  _19
REMARK    7  A    between atoms: _19  and  _20
REMARK    8  A    between atoms: _20  and  _21
REMARK    9  A    between atoms: _21  and  _22
REMARK                            x       y       z     vdW  Elec       q    Type
REMARK                         _______ _______ _______ _____ _____    ______ ____
ROOT
ATOM      1  N   LIG     1      -2.046   1.243   1.418  0.00  0.00    -0.246 N 
ATOM      2  H   LIG     1      -2.560   1.589   2.216  0.00  0.00    +0.172 HD
ENDROOT
BRANCH   1   4
ATOM      3  C   LIG     1      -3.224  -0.765   0.985  0.00  0.00    +0.249 C 
ATOM      4  N   LIG     1      -2.067  -0.058   1.048  0.00  0.00    -0.234 N 
ATOM      5  H   LIG     1      -1.196  -0.513   0.812  0.00  0.00    +0.173 HD
ATOM      6  O   LIG     1      -4.321  -0.176   1.155  0.00  0.00    -0.272 OA
BRANCH   3   8
ATOM      7  C   LIG     1      -2.466  -2.959   1.924  0.00  0.00    +0.038 C 
ATOM      8  C   LIG     1      -3.176  -2.233   0.751  0.00  0.00    +0.157 C 
BRANCH   8   9
ATOM      9  N   LIG     1      -4.486  -2.796   0.624  0.00  0.00    -0.312 N 
ATOM     10  H   LIG     1      -4.955  -3.184   1.431  0.00  0.00    +0.149 HD
ATOM     11  C   LIG     1      -5.206  -2.871  -0.519  0.00  0.00    +0.160 A 
ATOM     12  S   LIG     1      -6.834  -3.528  -0.607  0.00  0.00    -0.052 S 
ATOM     13  C   LIG     1      -6.973  -3.335  -2.341  0.00  0.00    +0.041 A 
ATOM     14  C   LIG     1      -7.997  -3.687  -3.231  0.00  0.00    +0.017 A 
ATOM     15  C   LIG     1      -7.788  -3.430  -4.601  0.00  0.00    +0.001 A 
ATOM     16  C   LIG     1      -6.591  -2.819  -5.041  0.00  0.00    +0.002 A 
ATOM     17  C   LIG     1      -5.582  -2.460  -4.119  0.00  0.00    +0.029 A 
ATOM     18  C   LIG     1      -5.766  -2.739  -2.751  0.00  0.00    +0.080 A 
ATOM     19  N   LIG     1      -4.848  -2.497  -1.773  0.00  0.00    -0.225 NA
ENDBRANCH   8   9
ENDBRANCH   3   8
ENDBRANCH   1   4
BRANCH   1  20
ATOM     20  C   LIG     1      -1.267   2.035   0.613  0.00  0.00    +0.147 C 
ATOM     21  S   LIG     1       0.226   2.543   1.262  0.00  0.00    -0.017 S 
BRANCH  20  22
ATOM     22  N   LIG     1      -1.716   2.371  -0.600  0.00  0.00    -0.325 N 
ATOM     23  H   LIG     1      -2.408   1.723  -0.949  0.00  0.00    +0.148 HD
BRANCH  22  24
ATOM     24  C   LIG     1      -1.311   3.506  -1.382  0.00  0.00    +0.108 C 
BRANCH  24  25
ATOM     25  C   LIG     1      -1.543   3.271  -2.903  0.00  0.00    +0.054 C 
BRANCH  25  26
ATOM     26  C   LIG     1      -1.615   4.535  -3.700  0.00  0.00    -0.042 A 
ATOM     27  C   LIG     1      -2.798   4.884  -4.397  0.00  0.00    +0.053 A 
ATOM     28  C   LIG     1      -2.894   6.091  -5.118  0.00  0.00    +0.162 A 
ATOM     29  O   LIG     1      -4.065   6.370  -5.793  0.00  0.00    -0.485 OA
ATOM     30  C   LIG     1      -4.250   7.748  -6.186  0.00  0.00    +0.270 C 
ATOM     31  C   LIG     1      -2.937   8.335  -6.761  0.00  0.00    +0.270 C 
ATOM     32  O   LIG     1      -1.854   8.187  -5.815  0.00  0.00    -0.485 OA
ATOM     33  C   LIG     1      -1.782   6.969  -5.171  0.00  0.00    +0.162 A 
ATOM     34  C   LIG     1      -0.588   6.611  -4.518  0.00  0.00    +0.050 A 
ATOM     35  C   LIG     1      -0.505   5.408  -3.789  0.00  0.00    +0.007 A 
ENDBRANCH  25  26
ENDBRANCH  24  25
ENDBRANCH  22  24
ENDBRANCH  20  22
ENDBRANCH   1  20
TORSDOF 8
