REMARK    Small molecule (ligand)
REMARK    Compound: Z231189408_1_T1
REMARK    SMILES: C[C@@H]1CCC2=C(C1)SC1=C2C(=O)N=C(CCC(=O)NNC(=S)NCCC2=CC=CS2)N1
REMARK    The ligand was originally not a salt, therefore no desalting was carried out.
REMARK    The tautomeric state was generated by cxcalc version 18.20.0 of ChemAxons JChem Suite.
REMARK    Protonation state was generated at pH 7.4 by cxcalc version 18.20.0 of ChemAxons JChem Suite.
REMARK    Generation of the 3D conformation was carried out by molconvert version 18.20.0 of ChemAxons JChem Suite.
REMARK    Generation of the the target format file (pdbqt) was carried out by Open Babel version 2.4.1.
REMARK    Created on Tue Nov 13 13:00:01 EST 2018
REMARK  10 active torsions:
REMARK  status: ('A' for Active; 'I' for Inactive)
REMARK    1  A    between atoms: _1  and  _2
REMARK    2  A    between atoms: _14  and  _15
REMARK    3  A    between atoms: _15  and  _16
REMARK    4  A    between atoms: _16  and  _17
REMARK    5  A    between atoms: _19  and  _20
REMARK    6  A    between atoms: _20  and  _21
REMARK    7  A    between atoms: _21  and  _23
REMARK    8  A    between atoms: _23  and  _24
REMARK    9  A    between atoms: _24  and  _25
REMARK   10  A    between atoms: _25  and  _26
REMARK                            x       y       z     vdW  Elec       q    Type
REMARK                         _______ _______ _______ _____ _____    ______ ____
ROOT
ATOM      1  C   LIG     1      -3.259  -1.590  -1.771  0.00  0.00    +0.105 C 
ENDROOT
BRANCH   1   2
ATOM      2  C   LIG     1      -2.456  -1.730  -3.010  0.00  0.00    +0.229 C 
ATOM      3  N   LIG     1      -1.469  -0.843  -3.290  0.00  0.00    -0.235 N 
ATOM      4  H   LIG     1      -1.284  -0.096  -2.636  0.00  0.00    +0.173 HD
ATOM      5  O   LIG     1      -2.695  -2.675  -3.799  0.00  0.00    -0.274 OA
BRANCH   3   6
ATOM      6  N   LIG     1      -0.720  -0.921  -4.416  0.00  0.00    -0.246 N 
ATOM      7  H   LIG     1      -1.105  -1.168  -5.317  0.00  0.00    +0.172 HD
BRANCH   6   8
ATOM      8  C   LIG     1       0.604  -0.633  -4.200  0.00  0.00    +0.147 C 
ATOM      9  S   LIG     1       1.118   0.976  -4.440  0.00  0.00    -0.017 S 
BRANCH   8  10
ATOM     10  N   LIG     1       1.412  -1.626  -3.834  0.00  0.00    -0.325 N 
ATOM     11  H   LIG     1       0.916  -2.398  -3.412  0.00  0.00    +0.148 HD
BRANCH  10  12
ATOM     12  C   LIG     1       2.832  -1.665  -3.990  0.00  0.00    +0.108 C 
BRANCH  12  13
ATOM     13  C   LIG     1       3.403  -2.915  -3.274  0.00  0.00    +0.061 C 
BRANCH  13  14
ATOM     14  C   LIG     1       4.762  -3.262  -3.738  0.00  0.00    -0.009 A 
ATOM     15  S   LIG     1       6.218  -2.298  -3.546  0.00  0.00    -0.102 S 
ATOM     16  C   LIG     1       7.285  -3.410  -4.382  0.00  0.00    +0.045 A 
ATOM     17  C   LIG     1       6.507  -4.502  -4.773  0.00  0.00    +0.008 A 
ATOM     18  C   LIG     1       5.148  -4.423  -4.423  0.00  0.00    +0.011 A 
ENDBRANCH  13  14
ENDBRANCH  12  13
ENDBRANCH  10  12
ENDBRANCH   8  10
ENDBRANCH   6   8
ENDBRANCH   3   6
ENDBRANCH   1   2
BRANCH   1  19
ATOM     19  C   LIG     1      -4.095  -0.277  -1.728  0.00  0.00    +0.083 C 
BRANCH  19  28
ATOM     20  C   LIG     1      -9.491  -0.022   6.749  0.00  0.00    +0.008 C 
ATOM     21  C   LIG     1      -8.902   0.187   5.328  0.00  0.00    -0.009 C 
ATOM     22  C   LIG     1      -7.400  -0.231   5.272  0.00  0.00    +0.046 C 
ATOM     23  C   LIG     1      -6.888  -0.254   3.890  0.00  0.00    -0.004 A 
ATOM     24  S   LIG     1      -5.196  -0.260   3.423  0.00  0.00    -0.075 S 
ATOM     25  C   LIG     1      -5.506  -0.239   1.701  0.00  0.00    +0.092 A 
ATOM     26  N   LIG     1      -4.614  -0.240   0.685  0.00  0.00    -0.337 N 
ATOM     27  H   LIG     1      -3.624  -0.242   0.884  0.00  0.00    +0.168 HD
ATOM     28  C   LIG     1      -5.059  -0.237  -0.601  0.00  0.00    +0.112 A 
ATOM     29  N   LIG     1      -6.404  -0.196  -0.833  0.00  0.00    -0.195 NA
ATOM     30  C   LIG     1      -7.328  -0.180   0.168  0.00  0.00    +0.282 A 
ATOM     31  O   LIG     1      -8.536  -0.117  -0.154  0.00  0.00    -0.265 OA
ATOM     32  C   LIG     1      -6.901  -0.227   1.515  0.00  0.00    +0.075 A 
ATOM     33  C   LIG     1      -7.666  -0.261   2.715  0.00  0.00    -0.023 A 
ATOM     34  C   LIG     1      -9.154  -0.288   2.799  0.00  0.00    +0.037 C 
ATOM     35  C   LIG     1      -9.717  -0.561   4.228  0.00  0.00    +0.008 C 
ENDBRANCH  19  28
ENDBRANCH   1  19
TORSDOF 9
