REMARK    Small molecule (ligand)
REMARK    Compound: Z259568548_1_T1
REMARK    SMILES: COCCCN1C(=S)NC2=CC(=CC=C2C1=O)C(=O)NNC(=S)NC1=CC=CC(C)=C1C
REMARK    The ligand was originally not a salt, therefore no desalting was carried out.
REMARK    The tautomeric state was generated by cxcalc version 18.20.0 of ChemAxons JChem Suite.
REMARK    Protonation state was generated at pH 7.4 by cxcalc version 18.20.0 of ChemAxons JChem Suite.
REMARK    Generation of the 3D conformation was carried out by molconvert version 18.20.0 of ChemAxons JChem Suite.
REMARK    Generation of the the target format file (pdbqt) was carried out by Open Babel version 2.4.1.
REMARK    Created on Tue Nov 13 12:59:41 EST 2018
REMARK  12 active torsions:
REMARK  status: ('A' for Active; 'I' for Inactive)
REMARK    1  A    between atoms: _1  and  _2
REMARK    2  A    between atoms: _2  and  _3
REMARK    3  A    between atoms: _3  and  _4
REMARK    4  A    between atoms: _4  and  _5
REMARK    5  A    between atoms: _5  and  _6
REMARK    6  A    between atoms: _12  and  _18
REMARK    7  A    between atoms: _20  and  _21
REMARK    8  A    between atoms: _21  and  _22
REMARK    9  A    between atoms: _22  and  _24
REMARK   10  A    between atoms: _24  and  _25
REMARK   11  A    between atoms: _29  and  _30
REMARK   12  A    between atoms: _31  and  _32
REMARK                            x       y       z     vdW  Elec       q    Type
REMARK                         _______ _______ _______ _____ _____    ______ ____
ROOT
ATOM      1  N   LIG     1      -3.851   1.443   2.492  0.00  0.00    -0.288 N 
ATOM      2  C   LIG     1      -4.533   2.472   1.880  0.00  0.00    +0.262 A 
ATOM      3  O   LIG     1      -3.915   3.429   1.349  0.00  0.00    -0.267 OA
ATOM      4  C   LIG     1      -5.945   2.479   1.809  0.00  0.00    +0.063 A 
ATOM      5  C   LIG     1      -6.691   3.512   1.200  0.00  0.00    +0.016 A 
ATOM      6  C   LIG     1      -8.095   3.448   1.161  0.00  0.00    +0.014 A 
ATOM      7  C   LIG     1      -8.798   2.349   1.714  0.00  0.00    +0.040 A 
ATOM      8  C   LIG     1      -8.038   1.320   2.326  0.00  0.00    +0.039 A 
ATOM      9  C   LIG     1      -6.631   1.381   2.378  0.00  0.00    +0.054 A 
ATOM     10  N   LIG     1      -5.927   0.389   2.972  0.00  0.00    -0.335 N 
ATOM     11  H   LIG     1      -6.429  -0.387   3.379  0.00  0.00    +0.168 HD
ATOM     12  C   LIG     1      -4.574   0.402   3.038  0.00  0.00    +0.161 A 
ATOM     13  S   LIG     1      -3.898  -0.985   3.832  0.00  0.00    -0.013 S 
ENDROOT
BRANCH   7  14
ATOM     14  C   LIG     1     -10.222   2.301   1.665  0.00  0.00    +0.260 C 
ATOM     15  N   LIG     1     -10.896   1.134   1.828  0.00  0.00    -0.231 N 
ATOM     16  H   LIG     1     -10.364   0.284   1.948  0.00  0.00    +0.173 HD
ATOM     17  O   LIG     1     -10.882   3.349   1.460  0.00  0.00    -0.269 OA
BRANCH  15  18
ATOM     18  N   LIG     1     -12.248   1.050   1.839  0.00  0.00    -0.245 N 
ATOM     19  H   LIG     1     -12.854   1.503   1.170  0.00  0.00    +0.172 HD
BRANCH  18  20
ATOM     20  C   LIG     1     -12.663   0.265   2.885  0.00  0.00    +0.151 C 
ATOM     21  S   LIG     1     -12.553  -1.423   2.678  0.00  0.00    -0.017 S 
BRANCH  20  22
ATOM     22  N   LIG     1     -13.129   0.682   4.067  0.00  0.00    -0.296 N 
ATOM     23  H   LIG     1     -13.124  -0.066   4.745  0.00  0.00    +0.154 HD
BRANCH  22  24
ATOM     24  C   LIG     1     -13.601   1.899   4.525  0.00  0.00    +0.036 A 
ATOM     25  C   LIG     1     -14.085   2.010   5.873  0.00  0.00    -0.026 A 
ATOM     26  C   LIG     1     -14.166   0.833   6.802  0.00  0.00    +0.046 C 
ATOM     27  C   LIG     1     -14.528   3.281   6.367  0.00  0.00    -0.046 A 
ATOM     28  C   LIG     1     -15.024   3.487   7.761  0.00  0.00    +0.044 C 
ATOM     29  C   LIG     1     -14.500   4.404   5.510  0.00  0.00    +0.004 A 
ATOM     30  C   LIG     1     -14.059   4.293   4.189  0.00  0.00    +0.002 A 
ATOM     31  C   LIG     1     -13.631   3.053   3.703  0.00  0.00    +0.023 A 
ENDBRANCH  22  24
ENDBRANCH  20  22
ENDBRANCH  18  20
ENDBRANCH  15  18
ENDBRANCH   7  14
BRANCH   1  32
ATOM     32  C   LIG     1      -2.396   1.454   2.511  0.00  0.00    +0.129 C 
BRANCH  32  33
ATOM     33  C   LIG     1      -1.833   0.723   1.262  0.00  0.00    +0.050 C 
BRANCH  33  34
ATOM     34  C   LIG     1      -0.288   0.691   1.222  0.00  0.00    +0.161 C 
BRANCH  34  36
ATOM     35  C   LIG     1       1.560  -0.083  -0.134  0.00  0.00    +0.193 C 
ATOM     36  O   LIG     1       0.134   0.007   0.026  0.00  0.00    -0.383 OA
ENDBRANCH  34  36
ENDBRANCH  33  34
ENDBRANCH  32  33
ENDBRANCH   1  32
TORSDOF 9
