REMARK    Small molecule (ligand)
REMARK    Compound: Z286814348_1_T2
REMARK    SMILES: COCCCN1C(S)=NC2=CC(=CC=C2C1=O)C(=O)NNC(=S)NC1=CC=C(C)C(C)=C1
REMARK    The ligand was originally not a salt, therefore no desalting was carried out.
REMARK    The tautomeric state was generated by cxcalc version 18.20.0 of ChemAxons JChem Suite.
REMARK    Protonation state was generated at pH 7.4 by cxcalc version 18.20.0 of ChemAxons JChem Suite.
REMARK    Generation of the 3D conformation was carried out by molconvert version 18.20.0 of ChemAxons JChem Suite.
REMARK    Generation of the the target format file (pdbqt) was carried out by Open Babel version 2.4.1.
REMARK    Created on Tue Nov 13 12:59:58 EST 2018
REMARK  13 active torsions:
REMARK  status: ('A' for Active; 'I' for Inactive)
REMARK    1  A    between atoms: _1  and  _2
REMARK    2  A    between atoms: _2  and  _3
REMARK    3  A    between atoms: _3  and  _4
REMARK    4  A    between atoms: _4  and  _5
REMARK    5  A    between atoms: _5  and  _6
REMARK    6  A    between atoms: _7  and  _8
REMARK    7  A    between atoms: _12  and  _18
REMARK    8  A    between atoms: _20  and  _21
REMARK    9  A    between atoms: _21  and  _22
REMARK   10  A    between atoms: _22  and  _24
REMARK   11  A    between atoms: _24  and  _25
REMARK   12  A    between atoms: _28  and  _29
REMARK   13  A    between atoms: _30  and  _31
REMARK                            x       y       z     vdW  Elec       q    Type
REMARK                         _______ _______ _______ _____ _____    ______ ____
ROOT
ATOM      1  N   LIG     1      -3.833   1.419   2.417  0.00  0.00    -0.287 N 
ATOM      2  C   LIG     1      -4.518   0.373   3.006  0.00  0.00    +0.262 A 
ATOM      3  O   LIG     1      -3.897  -0.601   3.497  0.00  0.00    -0.267 OA
ATOM      4  C   LIG     1      -5.934   0.364   3.074  0.00  0.00    +0.065 A 
ATOM      5  C   LIG     1      -6.700  -0.664   3.672  0.00  0.00    +0.016 A 
ATOM      6  C   LIG     1      -8.106  -0.582   3.703  0.00  0.00    +0.014 A 
ATOM      7  C   LIG     1      -8.796   0.521   3.142  0.00  0.00    +0.040 A 
ATOM      8  C   LIG     1      -8.021   1.540   2.539  0.00  0.00    +0.041 A 
ATOM      9  C   LIG     1      -6.616   1.462   2.503  0.00  0.00    +0.080 A 
ATOM     10  N   LIG     1      -5.910   2.447   1.908  0.00  0.00    -0.223 NA
ATOM     11  C   LIG     1      -4.559   2.443   1.850  0.00  0.00    +0.169 A 
ENDROOT
BRANCH   7  12
ATOM     12  C   LIG     1     -10.221   0.594   3.161  0.00  0.00    +0.260 C 
ATOM     13  N   LIG     1     -10.879   1.772   2.972  0.00  0.00    -0.231 N 
ATOM     14  H   LIG     1     -10.332   2.616   2.885  0.00  0.00    +0.173 HD
ATOM     15  O   LIG     1     -10.895  -0.446   3.356  0.00  0.00    -0.269 OA
BRANCH  13  16
ATOM     16  N   LIG     1     -12.230   1.882   2.892  0.00  0.00    -0.245 N 
ATOM     17  H   LIG     1     -12.857   1.466   3.566  0.00  0.00    +0.172 HD
BRANCH  16  18
ATOM     18  C   LIG     1     -12.639   2.615   1.801  0.00  0.00    +0.151 C 
ATOM     19  S   LIG     1     -12.373   4.296   1.825  0.00  0.00    -0.017 S 
BRANCH  18  20
ATOM     20  N   LIG     1     -13.272   2.149   0.722  0.00  0.00    -0.296 N 
ATOM     21  H   LIG     1     -13.488   2.879   0.058  0.00  0.00    +0.154 HD
BRANCH  20  22
ATOM     22  C   LIG     1     -13.671   0.885   0.367  0.00  0.00    +0.033 A 
ATOM     23  C   LIG     1     -13.627  -0.270   1.180  0.00  0.00    +0.027 A 
ATOM     24  C   LIG     1     -14.094  -1.530   0.727  0.00  0.00    -0.046 A 
ATOM     25  C   LIG     1     -14.023  -2.701   1.645  0.00  0.00    +0.044 C 
ATOM     26  C   LIG     1     -14.630  -1.638  -0.589  0.00  0.00    -0.047 A 
ATOM     27  C   LIG     1     -15.155  -2.925  -1.123  0.00  0.00    +0.044 C 
ATOM     28  C   LIG     1     -14.666  -0.484  -1.405  0.00  0.00    +0.005 A 
ATOM     29  C   LIG     1     -14.198   0.753  -0.933  0.00  0.00    +0.023 A 
ENDBRANCH  20  22
ENDBRANCH  18  20
ENDBRANCH  16  18
ENDBRANCH  13  16
ENDBRANCH   7  12
BRANCH  11  30
ATOM     30  S   LIG     1      -3.910   3.821   1.002  0.00  0.00    -0.105 S 
ATOM     31  H   LIG     1      -3.488   4.716   1.876  0.00  0.00    +0.110 HD
ENDBRANCH  11  30
BRANCH   1  32
ATOM     32  C   LIG     1      -2.377   1.423   2.393  0.00  0.00    +0.129 C 
BRANCH  32  33
ATOM     33  C   LIG     1      -1.804   0.693   1.149  0.00  0.00    +0.050 C 
BRANCH  33  34
ATOM     34  C   LIG     1      -0.257   0.681   1.139  0.00  0.00    +0.161 C 
BRANCH  34  36
ATOM     35  C   LIG     1       1.648  -0.075  -0.138  0.00  0.00    +0.193 C 
ATOM     36  O   LIG     1       0.214  -0.009  -0.033  0.00  0.00    -0.383 OA
ENDBRANCH  34  36
ENDBRANCH  33  34
ENDBRANCH  32  33
ENDBRANCH   1  32
TORSDOF 10
