REMARK    Small molecule (ligand)
REMARK    Compound: Z420084430_1_T1
REMARK    SMILES: Fc1ccccc1C(=O)Nc1nc(CC(=O)NNC(=S)NCCc2cccs2)cs1
REMARK    The ligand was originally not a salt, therefore no desalting was carried out.
REMARK    The tautomeric state was generated by cxcalc version 18.20.0 of ChemAxons JChem Suite.
REMARK    Protonation state was generated at pH 7.4 by cxcalc version 18.20.0 of ChemAxons JChem Suite.
REMARK    Generation of the 3D conformation was carried out by molconvert version 18.20.0 of ChemAxons JChem Suite.
REMARK    Generation of the the target format file (pdbqt) was carried out by Open Babel version 2.4.1.
REMARK    Created on Tue Nov 13 12:59:40 EST 2018
REMARK  9 active torsions:
REMARK  status: ('A' for Active; 'I' for Inactive)
REMARK    1  A    between atoms: _7  and  _8
REMARK    2  A    between atoms: _13  and  _14
REMARK    3  A    between atoms: _14  and  _15
REMARK    4  A    between atoms: _17  and  _18
REMARK    5  A    between atoms: _18  and  _19
REMARK    6  A    between atoms: _19  and  _21
REMARK    7  A    between atoms: _21  and  _22
REMARK    8  A    between atoms: _22  and  _23
REMARK    9  A    between atoms: _23  and  _24
REMARK                            x       y       z     vdW  Elec       q    Type
REMARK                         _______ _______ _______ _____ _____    ______ ____
ROOT
ATOM      1  C   LIG     1       2.777  -3.331   1.803  0.00  0.00    +0.153 C 
ENDROOT
BRANCH   1   8
ATOM      2  C   LIG     1      -1.446  -6.743   2.336  0.00  0.00    +0.252 C 
ATOM      3  N   LIG     1      -0.994  -6.065   3.434  0.00  0.00    -0.261 N 
ATOM      4  H   LIG     1      -1.449  -6.265   4.313  0.00  0.00    +0.157 HD
ATOM      5  C   LIG     1       0.005  -5.144   3.473  0.00  0.00    +0.165 A 
ATOM      6  S   LIG     1       0.425  -4.202   4.891  0.00  0.00    -0.060 S 
ATOM      7  C   LIG     1       1.742  -3.340   4.122  0.00  0.00    +0.072 A 
ATOM      8  C   LIG     1       1.796  -3.815   2.803  0.00  0.00    +0.059 A 
ATOM      9  N   LIG     1       0.864  -4.765   2.496  0.00  0.00    -0.229 NA
ATOM     10  O   LIG     1      -0.919  -6.520   1.219  0.00  0.00    -0.270 OA
BRANCH   2  13
ATOM     11  F   LIG     1      -1.931  -8.853   0.426  0.00  0.00    -0.205 F 
ATOM     12  C   LIG     1      -2.707  -8.720   1.470  0.00  0.00    +0.135 A 
ATOM     13  C   LIG     1      -2.508  -7.696   2.441  0.00  0.00    +0.072 A 
ATOM     14  C   LIG     1      -3.415  -7.646   3.531  0.00  0.00    +0.016 A 
ATOM     15  C   LIG     1      -4.457  -8.582   3.666  0.00  0.00    +0.001 A 
ATOM     16  C   LIG     1      -4.624  -9.590   2.703  0.00  0.00    +0.003 A 
ATOM     17  C   LIG     1      -3.753  -9.654   1.605  0.00  0.00    +0.039 A 
ENDBRANCH   2  13
ENDBRANCH   1   8
BRANCH   1  18
ATOM     18  C   LIG     1       2.105  -2.719   0.640  0.00  0.00    +0.235 C 
ATOM     19  N   LIG     1       1.195  -1.732   0.837  0.00  0.00    -0.235 N 
ATOM     20  H   LIG     1       1.068  -1.364   1.769  0.00  0.00    +0.173 HD
ATOM     21  O   LIG     1       2.371  -3.127  -0.516  0.00  0.00    -0.274 OA
BRANCH  19  22
ATOM     22  N   LIG     1       0.448  -1.218  -0.163  0.00  0.00    -0.246 N 
ATOM     23  H   LIG     1      -0.143  -1.775  -0.764  0.00  0.00    +0.172 HD
BRANCH  22  24
ATOM     24  C   LIG     1       0.595   0.139  -0.253  0.00  0.00    +0.147 C 
ATOM     25  S   LIG     1       1.986   0.743  -1.031  0.00  0.00    -0.017 S 
BRANCH  24  26
ATOM     26  N   LIG     1      -0.394   0.898   0.208  0.00  0.00    -0.325 N 
ATOM     27  H   LIG     1      -0.961   0.434   0.903  0.00  0.00    +0.148 HD
BRANCH  26  28
ATOM     28  C   LIG     1      -0.679   2.236  -0.196  0.00  0.00    +0.108 C 
BRANCH  28  29
ATOM     29  C   LIG     1      -2.066   2.669   0.339  0.00  0.00    +0.061 C 
BRANCH  29  30
ATOM     30  C   LIG     1      -2.506   3.934  -0.274  0.00  0.00    -0.009 A 
ATOM     31  S   LIG     1      -3.625   4.103  -1.618  0.00  0.00    -0.102 S 
ATOM     32  C   LIG     1      -3.491   5.846  -1.744  0.00  0.00    +0.045 A 
ATOM     33  C   LIG     1      -2.599   6.257  -0.749  0.00  0.00    +0.008 A 
ATOM     34  C   LIG     1      -2.063   5.224   0.042  0.00  0.00    +0.011 A 
ENDBRANCH  29  30
ENDBRANCH  28  29
ENDBRANCH  26  28
ENDBRANCH  24  26
ENDBRANCH  22  24
ENDBRANCH  19  22
ENDBRANCH   1  18
TORSDOF 9
