REMARK    Small molecule (ligand)
REMARK    Compound: Z45778442_1_T1
REMARK    SMILES: O=C(NNC(=S)NCc1cccs1)c1ccccc1NS(=O)(=O)c1cccs1
REMARK    The ligand was originally not a salt, therefore no desalting was carried out.
REMARK    The tautomeric state was generated by cxcalc version 18.20.0 of ChemAxons JChem Suite.
REMARK    Protonation state was generated at pH 7.4 by cxcalc version 18.20.0 of ChemAxons JChem Suite.
REMARK    Generation of the 3D conformation was carried out by molconvert version 18.20.0 of ChemAxons JChem Suite.
REMARK    Generation of the the target format file (pdbqt) was carried out by Open Babel version 2.4.1.
REMARK    Created on Tue Nov 13 13:00:15 EST 2018
REMARK  9 active torsions:
REMARK  status: ('A' for Active; 'I' for Inactive)
REMARK    1  A    between atoms: _2  and  _14
REMARK    2  A    between atoms: _3  and  _4
REMARK    3  A    between atoms: _4  and  _5
REMARK    4  A    between atoms: _5  and  _7
REMARK    5  A    between atoms: _7  and  _8
REMARK    6  A    between atoms: _8  and  _9
REMARK    7  A    between atoms: _19  and  _20
REMARK    8  A    between atoms: _20  and  _21
REMARK    9  A    between atoms: _21  and  _24
REMARK                            x       y       z     vdW  Elec       q    Type
REMARK                         _______ _______ _______ _____ _____    ______ ____
ROOT
ATOM      1  O   LIG     1      -0.458   2.675   1.482  0.00  0.00    -0.269 OA
ATOM      2  C   LIG     1      -1.502   2.065   1.811  0.00  0.00    +0.262 C 
ATOM      3  N   LIG     1      -2.695   2.719   1.728  0.00  0.00    -0.231 N 
ATOM      4  H   LIG     1      -3.526   2.250   2.057  0.00  0.00    +0.173 HD
ENDROOT
BRANCH   2   5
ATOM      5  C   LIG     1      -1.446   0.706   2.251  0.00  0.00    +0.060 A 
ATOM      6  C   LIG     1      -0.489  -0.238   1.758  0.00  0.00    +0.060 A 
ATOM      7  C   LIG     1      -0.564  -1.582   2.203  0.00  0.00    +0.025 A 
ATOM      8  C   LIG     1      -1.525  -1.990   3.140  0.00  0.00    +0.002 A 
ATOM      9  C   LIG     1      -2.436  -1.059   3.656  0.00  0.00    +0.001 A 
ATOM     10  C   LIG     1      -2.394   0.273   3.216  0.00  0.00    +0.015 A 
BRANCH   6  11
ATOM     11  N   LIG     1       0.457   0.138   0.835  0.00  0.00    -0.215 N 
ATOM     12  H   LIG     1       0.076   0.983   0.431  0.00  0.00    +0.174 HD
BRANCH  11  13
ATOM     13  S   LIG     1       1.936  -0.671   0.477  0.00  0.00    +0.079 S 
ATOM     14  O   LIG     1       1.663  -1.764  -0.666  0.00  0.00    -0.149 OA
ATOM     15  O   LIG     1       2.484  -1.429   1.782  0.00  0.00    -0.149 OA
BRANCH  13  16
ATOM     16  C   LIG     1       3.178   0.459  -0.080  0.00  0.00    +0.146 A 
ATOM     17  S   LIG     1       2.970   1.804  -1.187  0.00  0.00    -0.077 S 
ATOM     18  C   LIG     1       4.659   2.280  -1.206  0.00  0.00    +0.047 A 
ATOM     19  C   LIG     1       5.339   1.398  -0.362  0.00  0.00    +0.010 A 
ATOM     20  C   LIG     1       4.539   0.413   0.246  0.00  0.00    +0.036 A 
ENDBRANCH  13  16
ENDBRANCH  11  13
ENDBRANCH   6  11
ENDBRANCH   2   5
BRANCH   3  21
ATOM     21  N   LIG     1      -2.829   3.971   1.228  0.00  0.00    -0.246 N 
ATOM     22  H   LIG     1      -2.478   4.232   0.317  0.00  0.00    +0.172 HD
BRANCH  21  23
ATOM     23  C   LIG     1      -3.481   4.837   2.070  0.00  0.00    +0.147 C 
ATOM     24  S   LIG     1      -2.653   5.395   3.453  0.00  0.00    -0.017 S 
BRANCH  23  25
ATOM     25  N   LIG     1      -4.700   5.246   1.710  0.00  0.00    -0.321 N 
ATOM     26  H   LIG     1      -5.093   4.692   0.963  0.00  0.00    +0.148 HD
BRANCH  25  27
ATOM     27  C   LIG     1      -5.436   6.336   2.271  0.00  0.00    +0.145 C 
BRANCH  27  28
ATOM     28  C   LIG     1      -6.751   6.442   1.616  0.00  0.00    +0.007 A 
ATOM     29  S   LIG     1      -8.300   6.011   2.321  0.00  0.00    -0.100 S 
ATOM     30  C   LIG     1      -9.255   6.378   0.899  0.00  0.00    +0.045 A 
ATOM     31  C   LIG     1      -8.368   6.825  -0.083  0.00  0.00    +0.008 A 
ATOM     32  C   LIG     1      -7.014   6.858   0.303  0.00  0.00    +0.013 A 
ENDBRANCH  27  28
ENDBRANCH  25  27
ENDBRANCH  23  25
ENDBRANCH  21  23
ENDBRANCH   3  21
TORSDOF 9
