REMARK    Small molecule (ligand)
REMARK    Compound: Z806452044_1_T5
REMARK    SMILES: FC1=CC(C(=O)NCC2=CC(NC(=O)CCN3CCOCC3)=CC=C2)=C2NC(S)=NC2=C1
REMARK    The ligand was originally not a salt, therefore no desalting was carried out.
REMARK    The tautomeric state was generated by cxcalc version 18.20.0 of ChemAxons JChem Suite.
REMARK    Protonation state was generated at pH 7.4 by cxcalc version 18.20.0 of ChemAxons JChem Suite.
REMARK    Generation of the 3D conformation was carried out by molconvert version 18.20.0 of ChemAxons JChem Suite.
REMARK    Generation of the the target format file (pdbqt) was carried out by Open Babel version 2.4.1.
REMARK    Created on Tue Nov 13 12:59:56 EST 2018
REMARK  8 active torsions:
REMARK  status: ('A' for Active; 'I' for Inactive)
REMARK    1  A    between atoms: _4  and  _5
REMARK    2  A    between atoms: _7  and  _8
REMARK    3  A    between atoms: _8  and  _9
REMARK    4  A    between atoms: _11  and  _12
REMARK    5  A    between atoms: _13  and  _15
REMARK    6  A    between atoms: _15  and  _16
REMARK    7  A    between atoms: _16  and  _17
REMARK    8  A    between atoms: _28  and  _29
REMARK                            x       y       z     vdW  Elec       q    Type
REMARK                         _______ _______ _______ _____ _____    ______ ____
ROOT
ATOM      1  C   LIG     1       1.628   1.924  -0.368  0.00  0.00    +0.140 C 
ENDROOT
BRANCH   1   2
ATOM      2  C   LIG     1       3.097   2.026  -0.559  0.00  0.00    -0.029 A 
ATOM      3  C   LIG     1       3.666   1.958  -1.850  0.00  0.00    +0.005 A 
ATOM      4  C   LIG     1       5.052   2.114  -2.030  0.00  0.00    +0.002 A 
ATOM      5  C   LIG     1       5.894   2.293  -0.918  0.00  0.00    +0.023 A 
ATOM      6  C   LIG     1       5.361   2.287   0.386  0.00  0.00    +0.034 A 
ATOM      7  C   LIG     1       3.958   2.199   0.548  0.00  0.00    +0.028 A 
BRANCH   6   8
ATOM      8  N   LIG     1       6.227   2.388   1.436  0.00  0.00    -0.285 N 
ATOM      9  H   LIG     1       6.956   3.080   1.346  0.00  0.00    +0.155 HD
ATOM     10  C   LIG     1       6.222   1.662   2.594  0.00  0.00    +0.218 C 
ATOM     11  O   LIG     1       7.034   2.043   3.467  0.00  0.00    -0.275 OA
BRANCH  10  12
ATOM     12  C   LIG     1       5.365   0.482   2.888  0.00  0.00    +0.111 C 
BRANCH  12  13
ATOM     13  C   LIG     1       6.158  -0.800   3.248  0.00  0.00    +0.094 C 
BRANCH  13  14
ATOM     14  N   LIG     1       5.300  -2.022   3.428  0.00  0.00    -0.298 NA
ATOM     15  C   LIG     1       4.613  -2.485   2.175  0.00  0.00    +0.112 C 
ATOM     16  C   LIG     1       3.825  -3.799   2.392  0.00  0.00    +0.175 C 
ATOM     17  O   LIG     1       4.643  -4.810   3.006  0.00  0.00    -0.377 OA
ATOM     18  C   LIG     1       5.192  -4.397   4.269  0.00  0.00    +0.175 C 
ATOM     19  C   LIG     1       6.058  -3.127   4.098  0.00  0.00    +0.112 C 
ENDBRANCH  13  14
ENDBRANCH  12  13
ENDBRANCH  10  12
ENDBRANCH   6   8
ENDBRANCH   1   2
BRANCH   1  21
ATOM     20  C   LIG     1      -0.069   0.135  -0.105  0.00  0.00    +0.246 C 
ATOM     21  N   LIG     1       1.224   0.559  -0.249  0.00  0.00    -0.307 N 
ATOM     22  H   LIG     1       1.916  -0.176  -0.269  0.00  0.00    +0.149 HD
ATOM     23  O   LIG     1      -0.978   1.002  -0.076  0.00  0.00    -0.270 OA
BRANCH  20  33
ATOM     24  F   LIG     1       1.181  -4.546   0.287  0.00  0.00    -0.205 F 
ATOM     25  C   LIG     1       0.250  -3.636   0.232  0.00  0.00    +0.126 A 
ATOM     26  C   LIG     1      -1.098  -4.032   0.299  0.00  0.00    +0.068 A 
ATOM     27  C   LIG     1      -2.084  -3.042   0.210  0.00  0.00    +0.093 A 
ATOM     28  N   LIG     1      -3.417  -3.176   0.231  0.00  0.00    -0.222 NA
ATOM     29  C   LIG     1      -3.906  -1.931   0.092  0.00  0.00    +0.164 A 
ATOM     30  N   LIG     1      -2.909  -1.037  -0.006  0.00  0.00    -0.333 N 
ATOM     31  H   LIG     1      -3.016  -0.039  -0.116  0.00  0.00    +0.168 HD
ATOM     32  C   LIG     1      -1.745  -1.697   0.068  0.00  0.00    +0.079 A 
ATOM     33  C   LIG     1      -0.400  -1.250   0.017  0.00  0.00    +0.065 A 
ATOM     34  C   LIG     1       0.593  -2.269   0.099  0.00  0.00    +0.053 A 
BRANCH  29  35
ATOM     35  S   LIG     1      -5.593  -1.539   0.035  0.00  0.00    -0.105 S 
ATOM     36  H   LIG     1      -6.061  -1.430   1.264  0.00  0.00    +0.110 HD
ENDBRANCH  29  35
ENDBRANCH  20  33
ENDBRANCH   1  21
TORSDOF 8
