REMARK    Small molecule (ligand)
REMARK    Compound: Z830003048_1_T2
REMARK    SMILES: CC(C)(C)NS(=O)(=O)C1=CC=C(NNC(=S)NC2CCN(CC3=CC=CC=C3)CC2)N=C1
REMARK    The ligand was originally not a salt, therefore no desalting was carried out.
REMARK    The tautomeric state was generated by cxcalc version 18.20.0 of ChemAxons JChem Suite.
REMARK    Protonation state was generated at pH 7.4 by cxcalc version 18.20.0 of ChemAxons JChem Suite.
REMARK    Generation of the 3D conformation was carried out by molconvert version 18.20.0 of ChemAxons JChem Suite.
REMARK    Generation of the the target format file (pdbqt) was carried out by Open Babel version 2.4.1.
REMARK    Created on Tue Nov 13 12:59:49 EST 2018
REMARK  13 active torsions:
REMARK  status: ('A' for Active; 'I' for Inactive)
REMARK    1  A    between atoms: _1  and  _2
REMARK    2  A    between atoms: _2  and  _3
REMARK    3  A    between atoms: _2  and  _4
REMARK    4  A    between atoms: _2  and  _5
REMARK    5  A    between atoms: _5  and  _6
REMARK    6  A    between atoms: _6  and  _9
REMARK    7  A    between atoms: _12  and  _13
REMARK    8  A    between atoms: _13  and  _14
REMARK    9  A    between atoms: _14  and  _15
REMARK   10  A    between atoms: _15  and  _17
REMARK   11  A    between atoms: _17  and  _18
REMARK   12  A    between atoms: _21  and  _22
REMARK   13  A    between atoms: _22  and  _23
REMARK                            x       y       z     vdW  Elec       q    Type
REMARK                         _______ _______ _______ _____ _____    ______ ____
ROOT
ATOM      1  N   LIG     1      -0.283  -1.979  -5.370  0.00  0.00    -0.247 N 
ATOM      2  H   LIG     1      -0.705  -1.218  -4.857  0.00  0.00    +0.172 HD
ENDROOT
BRANCH   1   3
ATOM      3  N   LIG     1      -0.984  -2.487  -6.346  0.00  0.00    -0.249 N 
ATOM      4  H   LIG     1      -0.535  -3.169  -6.941  0.00  0.00    +0.171 HD
BRANCH   3   8
ATOM      5  C   LIG     1      -4.977  -1.419  -6.725  0.00  0.00    +0.123 A 
ATOM      6  C   LIG     1      -4.013  -0.514  -6.239  0.00  0.00    +0.141 A 
ATOM      7  N   LIG     1      -2.716  -0.895  -6.146  0.00  0.00    -0.237 NA
ATOM      8  C   LIG     1      -2.267  -2.113  -6.551  0.00  0.00    +0.135 A 
ATOM      9  C   LIG     1      -3.174  -3.014  -7.146  0.00  0.00    +0.047 A 
ATOM     10  C   LIG     1      -4.536  -2.665  -7.217  0.00  0.00    +0.033 A 
BRANCH   5  11
ATOM     11  S   LIG     1      -6.699  -1.020  -6.669  0.00  0.00    +0.060 S 
ATOM     12  O   LIG     1      -7.418  -1.580  -7.992  0.00  0.00    -0.153 OA
ATOM     13  O   LIG     1      -6.944   0.564  -6.620  0.00  0.00    -0.153 OA
BRANCH  11  14
ATOM     14  N   LIG     1      -7.498  -1.807  -5.298  0.00  0.00    -0.185 NA
ATOM     15  H   LIG     1      -8.208  -2.525  -5.331  0.00  0.00    +0.149 HD
BRANCH  14  17
ATOM     16  C   LIG     1      -5.763  -1.971  -3.446  0.00  0.00    +0.029 C 
ATOM     17  C   LIG     1      -7.183  -1.469  -3.876  0.00  0.00    +0.032 C 
ATOM     18  C   LIG     1      -7.347   0.055  -3.584  0.00  0.00    +0.029 C 
ATOM     19  C   LIG     1      -8.268  -2.241  -3.059  0.00  0.00    +0.029 C 
ENDBRANCH  14  17
ENDBRANCH  11  14
ENDBRANCH   5  11
ENDBRANCH   3   8
ENDBRANCH   1   3
BRANCH   1  20
ATOM     20  C   LIG     1       0.929  -2.392  -5.013  0.00  0.00    +0.147 C 
ATOM     21  S   LIG     1       1.860  -3.445  -5.980  0.00  0.00    -0.017 S 
BRANCH  20  22
ATOM     22  N   LIG     1       1.485  -2.014  -3.861  0.00  0.00    -0.323 N 
ATOM     23  H   LIG     1       2.412  -2.398  -3.744  0.00  0.00    +0.148 HD
BRANCH  22  24
ATOM     24  C   LIG     1       0.910  -1.166  -2.853  0.00  0.00    +0.074 C 
ATOM     25  C   LIG     1       1.629  -1.461  -1.504  0.00  0.00    +0.037 C 
ATOM     26  C   LIG     1       1.230  -0.449  -0.399  0.00  0.00    +0.086 C 
ATOM     27  N   LIG     1       1.404   0.973  -0.839  0.00  0.00    -0.298 NA
ATOM     28  C   LIG     1       0.600   1.273  -2.062  0.00  0.00    +0.086 C 
ATOM     29  C   LIG     1       0.999   0.340  -3.240  0.00  0.00    +0.037 C 
BRANCH  27  30
ATOM     30  C   LIG     1       2.738   1.672  -0.760  0.00  0.00    +0.119 C 
BRANCH  30  31
ATOM     31  C   LIG     1       3.900   0.906  -0.228  0.00  0.00    -0.033 A 
ATOM     32  C   LIG     1       4.855   0.336  -1.105  0.00  0.00    +0.005 A 
ATOM     33  C   LIG     1       5.943  -0.399  -0.598  0.00  0.00    +0.000 A 
ATOM     34  C   LIG     1       6.088  -0.576   0.788  0.00  0.00    +0.000 A 
ATOM     35  C   LIG     1       5.149  -0.013   1.669  0.00  0.00    +0.000 A 
ATOM     36  C   LIG     1       4.067   0.732   1.166  0.00  0.00    +0.005 A 
ENDBRANCH  30  31
ENDBRANCH  27  30
ENDBRANCH  22  24
ENDBRANCH  20  22
ENDBRANCH   1  20
TORSDOF 10
