("REMARK    Small molecule (ligand)\nREMARK    Compound: Z96057842_1_T2\nREMARK    SMILES: CN1N(C(=O)C(NC(=S)NNC(=S)NCCSC2=CC=CC=C2)=C1C)C1=CC=CC=C1\nREMARK    The ligand was originally not a salt, therefore no desalting was carried out.\nREMARK    The tautomeric state was generated by cxcalc version 18.20.0 of ChemAxons JChem Suite.\nREMARK    Protonation state was generated at pH 7.4 by cxcalc version 18.20.0 of ChemAxons JChem Suite.\nREMARK    Generation of the 3D conformation was carried out by molconvert version 18.20.0 of ChemAxons JChem Suite.\nREMARK    Generation of the the target format file (pdbqt) was carried out by Open Babel version 2.4.1.\nREMARK    Created on Tue Nov 13 12:59:01 EST 2018\nREMARK  13 active torsions:\nREMARK  status: ('A' for Active; 'I' for Inactive)\nREMARK    1  A    between atoms: _1  and  _2\nREMARK    2  A    between atoms: _3  and  _26\nREMARK    3  A    between atoms: _6  and  _7\nREMARK    4  A    between atoms: _7  and  _8\nREMARK    5  A    between atoms: _8  and  _10\nREMARK    6  A    between atoms: _10  and  _11\nREMARK    7  A    between atoms: _11  and  _12\nREMARK    8  A    between atoms: _12  and  _14\nREMARK    9  A    between atoms: _14  and  _15\nREMARK   10  A    between atoms: _15  and  _16\nREMARK   11  A    between atoms: _16  and  _17\nREMARK   12  A    between atoms: _17  and  _18\nREMARK   13  A    between atoms: _24  and  _25\nREMARK                            x       y       z     vdW  Elec       q    Type\nREMARK                         _______ _______ _______ _____ _____    ______ ____\nROOT\nATOM      1  C   LIG     1      -3.292  -2.689   2.797  0.00  0.00    +0.151 C \nATOM      2  S   LIG     1      -3.178  -1.145   3.499  0.00  0.00    -0.017 S \nENDROOT\nBRANCH   1   3\nATOM      3  N   LIG     1      -2.503  -2.934   1.756  0.00  0.00    -0.290 N \nATOM      4  H   LIG     1      -1.573  -2.544   1.825  0.00  0.00    +0.154 HD\nBRANCH   3   9\nATOM      5  C   LIG     1      -2.022  -5.473  -2.383  0.00  0.00    +0.171 C \nATOM      6  N   LIG     1      -2.627  -4.767  -1.282  0.00  0.00    -0.282 N \nATOM      7  C   LIG     1      -1.920  -4.135  -0.307  0.00  0.00    +0.059 A \nATOM      8  C   LIG     1      -0.444  -4.003  -0.251  0.00  0.00    +0.067 C \nATOM      9  C   LIG     1      -2.826  -3.645   0.634  0.00  0.00    +0.121 A \nATOM     10  C   LIG     1      -4.078  -3.994   0.133  0.00  0.00    +0.293 A \nATOM     11  O   LIG     1      -5.182  -3.686   0.642  0.00  0.00    -0.264 OA\nATOM     12  N   LIG     1      -3.912  -4.657  -1.031  0.00  0.00    -0.216 N \nBRANCH  12  13\nATOM     13  C   LIG     1      -4.957  -5.063  -1.821  0.00  0.00    +0.067 A \nATOM     14  C   LIG     1      -5.879  -6.032  -1.363  0.00  0.00    +0.028 A \nATOM     15  C   LIG     1      -6.944  -6.450  -2.185  0.00  0.00    +0.002 A \nATOM     16  C   LIG     1      -7.097  -5.902  -3.471  0.00  0.00    +0.000 A \nATOM     17  C   LIG     1      -6.195  -4.926  -3.931  0.00  0.00    +0.002 A \nATOM     18  C   LIG     1      -5.133  -4.507  -3.108  0.00  0.00    +0.028 A \nENDBRANCH  12  13\nENDBRANCH   3   9\nENDBRANCH   1   3\nBRANCH   1  19\nATOM     19  N   LIG     1      -4.142  -3.553   3.333  0.00  0.00    -0.246 N \nATOM     20  H   LIG     1      -5.047  -3.230   3.644  0.00  0.00    +0.172 HD\nBRANCH  19  21\nATOM     21  N   LIG     1      -3.862  -4.819   3.482  0.00  0.00    -0.247 N \nATOM     22  H   LIG     1      -2.902  -5.102   3.349  0.00  0.00    +0.172 HD\nBRANCH  21  23\nATOM     23  C   LIG     1      -4.764  -5.737   3.796  0.00  0.00    +0.147 C \nATOM     24  S   LIG     1      -6.373  -5.587   3.237  0.00  0.00    -0.017 S \nBRANCH  23  25\nATOM     25  N   LIG     1      -4.332  -6.770   4.525  0.00  0.00    -0.325 N \nATOM     26  H   LIG     1      -3.434  -6.598   4.955  0.00  0.00    +0.148 HD\nBRANCH  25  27\nATOM     27  C   LIG     1      -5.009  -8.015   4.724  0.00  0.00    +0.114 C \nBRANCH  27  28\nATOM     28  C   LIG     1      -4.476  -8.786   5.955  0.00  0.00    +0.093 C \nBRANCH  28  29\nATOM     29  S   LIG     1      -5.253 -10.437   6.009  0.00  0.00    -0.124 S \nBRANCH  29  30\nATOM     30  C   LIG     1      -4.883 -11.095   7.594  0.00  0.00    +0.008 A \nATOM     31  C   LIG     1      -3.651 -11.736   7.845  0.00  0.00    +0.015 A \nATOM     32  C   LIG     1      -3.397 -12.304   9.108  0.00  0.00    +0.001 A \nATOM     33  C   LIG     1      -4.367 -12.225  10.126  0.00  0.00    +0.000 A \nATOM     34  C   LIG     1      -5.598 -11.592   9.876  0.00  0.00    +0.001 A \nATOM     35  C   LIG     1      -5.855 -11.025   8.614  0.00  0.00    +0.015 A \nENDBRANCH  29  30\nENDBRANCH  28  29\nENDBRANCH  27  28\nENDBRANCH  25  27\nENDBRANCH  23  25\nENDBRANCH  21  23\nENDBRANCH  19  21\nENDBRANCH   1  19\nTORSDOF 11\n",)